                                   MODFLOW 6
                U.S. GEOLOGICAL SURVEY MODULAR HYDROLOGIC MODEL
                          GROUNDWATER FLOW MODEL (GWF)
                            VERSION 6.2.1 02/18/2021

   MODFLOW 6 compiled Feb 18 2021 21:14:51 with IFORT compiler (ver. 19.10.3)

This software has been approved for release by the U.S. Geological 
Survey (USGS). Although the software has been subjected to rigorous 
review, the USGS reserves the right to update the software as needed 
pursuant to further analysis and review. No warranty, expressed or 
implied, is made by the USGS or the U.S. Government as to the 
functionality of the software and related material nor shall the 
fact of release constitute any such warranty. Furthermore, the 
software is released on condition that neither the USGS nor the U.S. 
Government shall be held liable for any damages resulting from its 
authorized or unauthorized use. Also refer to the USGS Water 
Resources Software User Rights Notice for complete use, copyright, 
and distribution information.


System command used to initiate simulation:
..\bins\win\mf6

MODFLOW was compiled using uniform precision.

Real Variables
  KIND: 8
  TINY (smallest non-zero value):    2.225074-308
  HUGE (largest value):    1.797693+308
  PRECISION: 15
  BIT SIZE: 64

Integer Variables
  KIND: 4
  HUGE (largest value): 2147483647
  BIT SIZE: 32

Long Integer Variables
  KIND: 8
  HUGE (largest value): 9223372036854775807
  BIT SIZE: 64

Logical Variables
  KIND: 4
  BIT SIZE: 32
 

 OPENED .\experimental.obs
 FILE TYPE:OBS6                   UNIT 1005   STATUS:OLD                 
 FORMAT:FORMATTED              ACCESS:SEQUENTIAL          
 ACTION:READ                


 OPENED .\experimental.sfr
 FILE TYPE:SFR6                   UNIT 1006   STATUS:OLD                 
 FORMAT:FORMATTED              ACCESS:SEQUENTIAL          
 ACTION:READ                


 OPENED .\experimental.rch
 FILE TYPE:RCH6                   UNIT 1007   STATUS:OLD                 
 FORMAT:FORMATTED              ACCESS:SEQUENTIAL          
 ACTION:READ                


 OPENED .\experimental.ghb
 FILE TYPE:GHB6                   UNIT 1008   STATUS:OLD                 
 FORMAT:FORMATTED              ACCESS:SEQUENTIAL          
 ACTION:READ                


 OPENED .\experimental.sto
 FILE TYPE:STO6                   UNIT 1009   STATUS:OLD                 
 FORMAT:FORMATTED              ACCESS:SEQUENTIAL          
 ACTION:READ                


 OPENED .\experimental.oc
 FILE TYPE:OC6                    UNIT 1010   STATUS:OLD                 
 FORMAT:FORMATTED              ACCESS:SEQUENTIAL          
 ACTION:READ                


 OPENED .\experimental.npf
 FILE TYPE:NPF6                   UNIT 1011   STATUS:OLD                 
 FORMAT:FORMATTED              ACCESS:SEQUENTIAL          
 ACTION:READ                


 OPENED .\experimental.ic
 FILE TYPE:IC6                    UNIT 1012   STATUS:OLD                 
 FORMAT:FORMATTED              ACCESS:SEQUENTIAL          
 ACTION:READ                


 OPENED .\experimental.disv
 FILE TYPE:DISV6                  UNIT 1013   STATUS:OLD                 
 FORMAT:FORMATTED              ACCESS:SEQUENTIAL          
 ACTION:READ                

 NAMEFILE OPTIONS:
    FLOWS WILL BE SAVED TO BUDGET FILE SPECIFIED IN OUTPUT CONTROL
    NEWTON-RAPHSON method enabled for the model.
    NEWTON-RAPHSON UNDER-RELAXATION based on the bottom elevation of the model will be applied to the model.

 DISV -- VERTEX GRID DISCRETIZATION PACKAGE, VERSION 1 : 12/23/2015 - INPUT READ FROM UNIT 1013


 # File generated by Flopy version 3.3.5 on 11/09/2021 at 14:51:25.

 PROCESSING DISCRETIZATION OPTIONS
    MODEL LENGTH UNIT IS METERS
 END OF DISCRETIZATION OPTIONS

 PROCESSING DISCRETIZATION DIMENSIONS
   NLAY = 3
   NCPL = 3783
   NVERT = 4271
 END OF DISCRETIZATION DIMENSIONS

 PROCESSING GRIDDATA
 END PROCESSING GRIDDATA

 PROCESSING VERTICES
   SUCCESSFULLY READ 4271 (X,Y) COORDINATES
   MINIMUM X COORDINATE =     426888.873000000    
   MAXIMUM X COORDINATE =     427652.548000000    
   MINIMUM Y COORDINATE =     6654697.49000000    
   MAXIMUM Y COORDINATE =     6655291.46000000    
 END PROCESSING VERTICES

 PROCESSING CELL2D
   SUCCESSFULLY READ 3783 CELL2D INFORMATION ENTRIES
   MINIMUM X CELL CENTER =     426895.944000000    
   MAXIMUM X CELL CENTER =     427645.477000000    
   MINIMUM Y CELL CENTER =     6654704.56000000    
   MAXIMUM Y CELL CENTER =     6655284.39000000    
   MAXIMUM NUMBER OF CELL2D VERTICES IS 9 FOR CELL 1867
 END PROCESSING VERTICES

 NPF -- NODE PROPERTY FLOW PACKAGE, VERSION 1, 3/30/2015 INPUT READ FROM UNIT 1011


 # File generated by Flopy version 3.3.5 on 11/09/2021 at 14:51:26.
 PROCESSING NPF OPTIONS
    CELL-BY-CELL FLOW INFORMATION WILL BE SAVED TO BINARY FILE WHENEVER ICBCFL IS NOT ZERO.
 END OF NPF OPTIONS

 GHB   -- GHB PACKAGE, VERSION 8, 2/22/2014 INPUT READ FROM UNIT 1008
 # File generated by Flopy version 3.3.5 on 11/09/2021 at 14:51:27.

 PROCESSING GHB OPTIONS
    GHB BOUNDARIES HAVE NAMES IN LAST COLUMN.
    LISTS OF GHB CELLS WILL BE PRINTED.
    GHB FLOWS WILL BE PRINTED TO LISTING FILE.
    FLOWS WILL BE SAVED TO BUDGET FILE SPECIFIED IN OUTPUT CONTROL
 END OF GHB OPTIONS

 PROCESSING GHB DIMENSIONS
    MAXBOUND =     180
 END OF GHB DIMENSIONS

 RCH   -- RCH PACKAGE, VERSION 8, 2/22/2014 INPUT READ FROM UNIT 1007
 # File generated by Flopy version 3.3.5 on 11/09/2021 at 14:51:27.

 PROCESSING RCH OPTIONS
    RECHARGE WILL BE APPLIED TO SPECIFIED CELL.
    LISTS OF RCH CELLS WILL BE PRINTED.
    RCH FLOWS WILL BE PRINTED TO LISTING FILE.
    FLOWS WILL BE SAVED TO BUDGET FILE SPECIFIED IN OUTPUT CONTROL
 END OF RCH OPTIONS

 PROCESSING RCH DIMENSIONS
    MAXBOUND =    3603
 END OF RCH DIMENSIONS

 SFR   -- SFR PACKAGE, VERSION 8, 2/22/2014 INPUT READ FROM UNIT 1006
 # File generated by Flopy version 3.3.5 on 11/09/2021 at 14:51:27.

 PROCESSING SFR OPTIONS
    LISTS OF SFR CELLS WILL BE PRINTED.
    SFR STAGES WILL BE PRINTED TO LISTING FILE.
    SFR FLOWS WILL BE PRINTED TO LISTING FILE.
    FLOWS WILL BE SAVED TO BUDGET FILE SPECIFIED IN OUTPUT CONTROL

 OPENED experimental.sfr.bud
 FILE TYPE:DATA(BINARY)   UNIT 1015   STATUS:REPLACE             
 FORMAT:UNFORMATTED            ACCESS:STREAM              
 ACTION:READWRITE           

    SFR  BUDGET  WILL BE SAVED TO FILE: experimental.sfr.bud                                                                                                                                                                                                                                                                                                                                                                                                                                                                                                                                                                                                                                                                                                                                                                                                                                                                                                                                                                                                                                                                                                                                                                                                                                                                                                                                                                                                                                                                                                                                                                                                                                                                                                                                                                                                                                                                                                                                                                                                                                                                                                                                                                                                                                                                                                                                                                                                                                                                                                                                                                                                                                                                                                                                                                                                                                                                                                                                                                                                                                                                                                                                                                                                                                                                                                                                                                                                                                                                                                                                                                                                                                                                                                                                                                                                                                                                                                                                                                                                                                                                                                                                                                                                                                                                                                                                                                                                                                                                                                                                                                                                                                                                                                                                                                                                                                                                                                                                                                                                                                                                                                                                                                                    
    OPENED ON UNIT:    1015

 OPENED experimental_leakage.sfr.obs
 FILE TYPE:OBS   UNIT 1016   STATUS:OLD                 
 FORMAT:FORMATTED              ACCESS:SEQUENTIAL          
 ACTION:READ                

    MAXIMUM SFR ITERATION VALUE (100) SPECIFIED.
    UNIT CONVERSION VALUE (86400.00000000000) SPECIFIED.
 END OF SFR OPTIONS

 PROCESSING SFR DIMENSIONS
    NREACHES = 270
 END OF SFR DIMENSIONS

 PROCESSING SFR PACKAGEDATA
 END OF SFR PACKAGEDATA

 PROCESSING SFR CONNECTIONDATA
 END OF SFR CONNECTIONDATA

 IC -- INITIAL CONDITIONS PACKAGE, VERSION 8, 3/28/2015 INPUT READ FROM UNIT 1012
 # File generated by Flopy version 3.3.5 on 11/09/2021 at 14:51:26.
 PROCESSING GRIDDATA

     INITIAL HEAD =   138.0000    
 END PROCESSING GRIDDATA
 PROCESSING GRIDDATA

                ICELLTYPE = 1 FOR LAYER 1

                ICELLTYPE = 0 FOR LAYER 2

                ICELLTYPE = 0 FOR LAYER 3

                        K =   86.40000     FOR LAYER 1

                        K =   86.40000     FOR LAYER 2

                        K =   43.20000     FOR LAYER 3

                      K33 =   8.640000     FOR LAYER 1

                      K33 =   8.640000     FOR LAYER 2

                      K33 =  0.1000000     FOR LAYER 3
 K22 not provided.  Assuming K22 = K.
 END PROCESSING GRIDDATA

 STO -- STORAGE PACKAGE, VERSION 1, 5/19/2014 INPUT READ FROM UNIT 1009


 # File generated by Flopy version 3.3.5 on 11/09/2021 at 14:51:26.
 PROCESSING STORAGE OPTIONS
    CELL-BY-CELL FLOW INFORMATION WILL BE SAVED TO BINARY FILE WHENEVER ICBCFL IS NOT ZERO.
 END OF STORAGE OPTIONS
 PROCESSING GRIDDATA

                 ICONVERT = 1

         SPECIFIC STORAGE FOR LAYER 1
       1.000E-06  1.000E-06  1.000E-06  1.000E-06  1.000E-06  1.000E-06  1.000E-06  1.000E-06  1.000E-06  1.000E-06  1.000E-06
       1.000E-06  1.000E-06  1.000E-06  1.000E-06  1.000E-06  1.000E-06  1.000E-06  1.000E-06  1.000E-06  1.000E-06  1.000E-06
       1.000E-06  1.000E-06  1.000E-06  1.000E-06  1.000E-06  1.000E-06  1.000E-06  1.000E-06  1.000E-06  1.000E-06  1.000E-06
       1.000E-06  1.000E-06  1.000E-06  1.000E-06  1.000E-06  1.000E-06  1.000E-06  1.000E-06  1.000E-06  1.000E-06  1.000E-06
       1.000E-06  1.000E-06  1.000E-06  1.000E-06  1.000E-06  1.000E-06  1.000E-06  1.000E-06  1.000E-06  1.000E-06  1.000E-06
       1.000E-06  1.000E-06  1.000E-06  1.000E-06  1.000E-06  1.000E-06  1.000E-06  1.000E-06  1.000E-06  1.000E-06  1.000E-06
       1.000E-06  1.000E-06  1.000E-06  1.000E-06  1.000E-06  1.000E-06  1.000E-06  1.000E-06  1.000E-06  1.000E-06  1.000E-06
       1.000E-06  1.000E-06  1.000E-06  1.000E-06  1.000E-06  1.000E-06  1.000E-06  1.000E-06  1.000E-06  1.000E-06  1.000E-06
       1.000E-06  1.000E-06  1.000E-06  1.000E-06  1.000E-06  1.000E-06  1.000E-06  1.000E-06  1.000E-06  1.000E-06  1.000E-06
       1.000E-06  1.000E-06  1.000E-06  1.000E-06  1.000E-06  1.000E-06  1.000E-06  1.000E-06  1.000E-06  1.000E-06  1.000E-06
       1.000E-06  1.000E-06  1.000E-06  1.000E-06  1.000E-06  1.000E-06  1.000E-06  1.000E-06  1.000E-06  1.000E-06  1.000E-06
       1.000E-06  1.000E-06  1.000E-06  1.000E-06  1.000E-06  1.000E-06  1.000E-06  1.000E-06  1.000E-06  1.000E-06  1.000E-06
       1.000E-06  1.000E-06  1.000E-06  1.000E-06  1.000E-06  1.000E-06  1.000E-06  1.000E-06  1.000E-06  1.000E-06  1.000E-06
       1.000E-06  1.000E-06  1.000E-06  1.000E-06  1.000E-06  1.000E-06  1.000E-06  1.000E-06  1.000E-06  1.000E-06  1.000E-06
       1.000E-06  1.000E-06  1.000E-06  1.000E-06  1.000E-06  1.000E-06  1.000E-06  1.000E-06  1.000E-06  1.000E-06  1.000E-06
       1.000E-06  1.000E-06  1.000E-06  1.000E-06  1.000E-06  1.000E-06  1.000E-06  1.000E-06  1.000E-06  1.000E-06  1.000E-06
       1.000E-06  1.000E-06  1.000E-06  1.000E-06  1.000E-06  1.000E-06  1.000E-06  1.000E-06  1.000E-06  1.000E-06  1.000E-06
       1.000E-06  1.000E-06  1.000E-06  1.000E-06  1.000E-06  1.000E-06  1.000E-06  1.000E-06  1.000E-06  1.000E-06  1.000E-06
       1.000E-06  1.000E-06  1.000E-06  1.000E-06  1.000E-06  1.000E-06  1.000E-06  1.000E-06  1.000E-06  1.000E-06  1.000E-06
       1.000E-06  1.000E-06  1.000E-06  1.000E-06  1.000E-06  1.000E-06  1.000E-06  1.000E-06  1.000E-06  1.000E-06  1.000E-06
       1.000E-06  1.000E-06  1.000E-06  1.000E-06  1.000E-06  1.000E-06  1.000E-06  1.000E-06  1.000E-06  1.000E-06  1.000E-06
       1.000E-06  1.000E-06  1.000E-06  1.000E-06  1.000E-06  1.000E-06  1.000E-06  1.000E-06  1.000E-06  1.000E-06  1.000E-06
       1.000E-06  1.000E-06  1.000E-06  1.000E-06  1.000E-06  1.000E-06  1.000E-06  1.000E-06  1.000E-06  1.000E-06  1.000E-06
       1.000E-06  1.000E-06  1.000E-06  1.000E-06  1.000E-06  1.000E-06  1.000E-06  1.000E-06  1.000E-06  1.000E-06  1.000E-06
       1.000E-06  1.000E-06  1.000E-06  1.000E-06  1.000E-06  1.000E-06  1.000E-06  1.000E-06  1.000E-06  1.000E-06  1.000E-06
       1.000E-06  1.000E-06  1.000E-06  1.000E-06  1.000E-06  1.000E-06  1.000E-06  1.000E-06  1.000E-06  1.000E-06  1.000E-06
       1.000E-06  1.000E-06  1.000E-06  1.000E-06  1.000E-06  1.000E-06  1.000E-06  1.000E-06  1.000E-06  1.000E-06  1.000E-06
       1.000E-06  1.000E-06  1.000E-06  1.000E-06  1.000E-06  1.000E-06  1.000E-06  1.000E-06  1.000E-06  1.000E-06  1.000E-06
       1.000E-06  1.000E-06  1.000E-06  1.000E-06  1.000E-06  1.000E-06  1.000E-06  1.000E-06  1.000E-06  1.000E-06  1.000E-06
       1.000E-06  1.000E-06  1.000E-06  1.000E-06  1.000E-06  1.000E-06  1.000E-06  1.000E-06  1.000E-06  1.000E-06  1.000E-06
       1.000E-06  1.000E-06  1.000E-06  1.000E-06  1.000E-06  1.000E-06  1.000E-06  1.000E-06  1.000E-06  1.000E-06  1.000E-06
       1.000E-06  1.000E-06  1.000E-06  1.000E-06  1.000E-06  1.000E-06  1.000E-06  1.000E-06  1.000E-06  1.000E-06  1.000E-06
       1.000E-06  1.000E-06  1.000E-06  1.000E-06  1.000E-06  1.000E-06  1.000E-06  1.000E-06  1.000E-06  1.000E-06  1.000E-06
       1.000E-06  1.000E-06  1.000E-06  1.000E-06  1.000E-06  1.000E-06  1.000E-06  1.000E-06  1.000E-06  1.000E-06  1.000E-06
       1.000E-06  1.000E-06  1.000E-06  1.000E-06  1.000E-06  1.000E-06  1.000E-06  1.000E-06  1.000E-06  1.000E-06  1.000E-06
       1.000E-06  1.000E-06  1.000E-06  1.000E-06  1.000E-06  1.000E-06  1.000E-06  1.000E-06  1.000E-06  1.000E-06  1.000E-06
       1.000E-06  1.000E-06  1.000E-06  1.000E-06  1.000E-06  1.000E-06  1.000E-06  1.000E-06  1.000E-06  1.000E-06  1.000E-06
       1.000E-06  1.000E-06  1.000E-06  1.000E-06  1.000E-06  1.000E-06  1.000E-06  1.000E-06  1.000E-06  1.000E-06  1.000E-06
       1.000E-06  1.000E-06  1.000E-06  1.000E-06  1.000E-06  1.000E-06  1.000E-06  1.000E-06  1.000E-06  1.000E-06  1.000E-06
       1.000E-06  1.000E-06  1.000E-06  1.000E-06  1.000E-06  1.000E-06  1.000E-06  1.000E-06  1.000E-06  1.000E-06  1.000E-06
       1.000E-06  1.000E-06  1.000E-06  1.000E-06  1.000E-06  1.000E-06  1.000E-06  1.000E-06  1.000E-06  1.000E-06  1.000E-06
       1.000E-06  1.000E-06  1.000E-06  1.000E-06  1.000E-06  1.000E-06  1.000E-06  1.000E-06  1.000E-06  1.000E-06  1.000E-06
       1.000E-06  1.000E-06  1.000E-06  1.000E-06  1.000E-06  1.000E-06  1.000E-06  1.000E-06  1.000E-06  1.000E-06  1.000E-06
       1.000E-06  1.000E-06  1.000E-06  1.000E-06  1.000E-06  1.000E-06  1.000E-06  1.000E-06  1.000E-06  1.000E-06  1.000E-06
       1.000E-06  1.000E-06  1.000E-06  1.000E-06  1.000E-06  1.000E-06  1.000E-06  1.000E-06  1.000E-06  1.000E-06  1.000E-06
       1.000E-06  1.000E-06  1.000E-06  1.000E-06  1.000E-06  1.000E-06  1.000E-06  1.000E-06  1.000E-06  1.000E-06  1.000E-06
       1.000E-06  1.000E-06  1.000E-06  1.000E-06  1.000E-06  1.000E-06  1.000E-06  1.000E-06  1.000E-06  1.000E-06  1.000E-06
       1.000E-06  1.000E-06  1.000E-06  1.000E-06  1.000E-06  1.000E-06  1.000E-06  1.000E-06  1.000E-06  1.000E-06  1.000E-06
       1.000E-06  1.000E-06  1.000E-06  1.000E-06  1.000E-06  1.000E-06  1.000E-06  1.000E-06  1.000E-06  1.000E-06  1.000E-06
       1.000E-06  1.000E-06  1.000E-06  1.000E-06  1.000E-06  1.000E-06  1.000E-06  1.000E-06  1.000E-06  1.000E-06  1.000E-06
       1.000E-06  1.000E-06  1.000E-06  1.000E-06  1.000E-06  1.000E-06  1.000E-06  1.000E-06  1.000E-06  1.000E-06  1.000E-06
       1.000E-06  1.000E-06  1.000E-06  1.000E-06  1.000E-06  1.000E-06  1.000E-06  1.000E-06  1.000E-06  1.000E-06  1.000E-06
       1.000E-06  1.000E-06  1.000E-06  1.000E-06  1.000E-06  1.000E-06  1.000E-06  1.000E-06  1.000E-06  1.000E-06  1.000E-06
       1.000E-06  1.000E-06  1.000E-06  1.000E-06  1.000E-06  1.000E-06  1.000E-06  1.000E-06  1.000E-06  1.000E-06  1.000E-06
       1.000E-06  1.000E-06  1.000E-06  1.000E-06  1.000E-06  1.000E-06  1.000E-06  1.000E-06  1.000E-06  1.000E-06  1.000E-06
       1.000E-06  1.000E-06  1.000E-06  1.000E-06  1.000E-06  1.000E-06  1.000E-06  1.000E-06  1.000E-06  1.000E-06  1.000E-06
       1.000E-06  1.000E-06  1.000E-06  1.000E-06  1.000E-06  1.000E-06  1.000E-06  1.000E-06  1.000E-06  1.000E-06  1.000E-06
       1.000E-06  1.000E-06  1.000E-06  1.000E-06  1.000E-06  1.000E-06  1.000E-06  1.000E-06  1.000E-06  1.000E-06  1.000E-06
       1.000E-06  1.000E-06  1.000E-06  1.000E-06  1.000E-06  1.000E-06  1.000E-06  1.000E-06  1.000E-06  1.000E-06  1.000E-06
       1.000E-06  1.000E-06  1.000E-06  1.000E-06  1.000E-06  1.000E-06  1.000E-06  1.000E-06  1.000E-06  1.000E-06  1.000E-06
       1.000E-06  1.000E-06  1.000E-06  1.000E-06  1.000E-06  1.000E-06  1.000E-06  1.000E-06  1.000E-06  1.000E-06  1.000E-06
       1.000E-06  1.000E-06  1.000E-06  1.000E-06  1.000E-06  1.000E-06  1.000E-06  1.000E-06  1.000E-06  1.000E-06  1.000E-06
       1.000E-06  1.000E-06  1.000E-06  1.000E-06  1.000E-06  1.000E-06  1.000E-06  1.000E-06  1.000E-06  1.000E-06  1.000E-06
       1.000E-06  1.000E-06  1.000E-06  1.000E-06  1.000E-06  1.000E-06  1.000E-06  1.000E-06  1.000E-06  1.000E-06  1.000E-06
       1.000E-06  1.000E-06  1.000E-06  1.000E-06  1.000E-06  1.000E-06  1.000E-06  1.000E-06  1.000E-06  1.000E-06  1.000E-06
       1.000E-06  1.000E-06  1.000E-06  1.000E-06  1.000E-06  1.000E-06  1.000E-06  1.000E-06  1.000E-06  1.000E-06  1.000E-06
       1.000E-06  1.000E-06  1.000E-06  1.000E-06  1.000E-06  1.000E-06  1.000E-06  1.000E-06  1.000E-06  1.000E-06  1.000E-06
       1.000E-06  1.000E-06  1.000E-06  1.000E-06  1.000E-06  1.000E-06  1.000E-06  1.000E-06  1.000E-06  1.000E-06  1.000E-06
       1.000E-06  1.000E-06  1.000E-06  1.000E-06  1.000E-06  1.000E-06  1.000E-06  1.000E-06  1.000E-06  1.000E-06  1.000E-06
       1.000E-06  1.000E-06  1.000E-06  1.000E-06  1.000E-06  1.000E-06  1.000E-06  1.000E-06  1.000E-06  1.000E-06  1.000E-06
       1.000E-06  1.000E-06  1.000E-06  1.000E-06  1.000E-06  1.000E-06  1.000E-06  1.000E-06  1.000E-06  1.000E-06  1.000E-06
       1.000E-06  1.000E-06  1.000E-06  1.000E-06  1.000E-06  1.000E-06  1.000E-06  1.000E-06  1.000E-06  1.000E-06  1.000E-06
       1.000E-06  1.000E-06  1.000E-06  1.000E-06  1.000E-06  1.000E-06  1.000E-06  1.000E-06  1.000E-06  1.000E-06  1.000E-06
       1.000E-06  1.000E-06  1.000E-06  1.000E-06  1.000E-06  1.000E-06  1.000E-06  1.000E-06  1.000E-06  1.000E-06  1.000E-06
       1.000E-06  1.000E-06  1.000E-06  1.000E-06  1.000E-06  1.000E-06  1.000E-06  1.000E-06  1.000E-06  1.000E-06  1.000E-06
       1.000E-06  1.000E-06  1.000E-06  1.000E-06  1.000E-06  1.000E-06  1.000E-06  1.000E-06  1.000E-06  1.000E-06  1.000E-06
       1.000E-06  1.000E-06  1.000E-06  1.000E-06  1.000E-06  1.000E-06  1.000E-06  1.000E-06  1.000E-06  1.000E-06  1.000E-06
       1.000E-06  1.000E-06  1.000E-06  1.000E-06  1.000E-06  1.000E-06  1.000E-06  1.000E-06  1.000E-06  1.000E-06  1.000E-06
       1.000E-06  1.000E-06  1.000E-06  1.000E-06  1.000E-06  1.000E-06  1.000E-06  1.000E-06  1.000E-06  1.000E-06  1.000E-06
       1.000E-06  1.000E-06  1.000E-06  1.000E-06  1.000E-06  1.000E-06  1.000E-06  1.000E-06  1.000E-06  1.000E-06  1.000E-06
       1.000E-06  1.000E-06  1.000E-06  1.000E-06  1.000E-06  1.000E-06  1.000E-06  1.000E-06  1.000E-06  1.000E-06  1.000E-06
       1.000E-06  1.000E-06  1.000E-06  1.000E-06  1.000E-06  1.000E-06  1.000E-06  1.000E-06  1.000E-06  1.000E-06  1.000E-06
       1.000E-06  1.000E-06  1.000E-06  1.000E-06  1.000E-06  1.000E-06  1.000E-06  1.000E-06  1.000E-06  1.000E-06  1.000E-06
       1.000E-06  1.000E-06  1.000E-06  1.000E-06  1.000E-06  1.000E-06  1.000E-06  1.000E-06  1.000E-06  1.000E-06  1.000E-06
       1.000E-06  1.000E-06  1.000E-06  1.000E-06  1.000E-06  1.000E-06  1.000E-06  1.000E-06  1.000E-06  1.000E-06  1.000E-06
       1.000E-06  1.000E-06  1.000E-06  1.000E-06  1.000E-06  1.000E-06  1.000E-06  1.000E-06  1.000E-06  1.000E-06  1.000E-06
       1.000E-06  1.000E-06  1.000E-06  1.000E-06  1.000E-06  1.000E-06  1.000E-06  1.000E-06  1.000E-06  1.000E-06  1.000E-06
       1.000E-06  1.000E-06  1.000E-06  1.000E-06  1.000E-06  1.000E-06  1.000E-06  1.000E-06  1.000E-06  1.000E-06  1.000E-06
       1.000E-06  1.000E-06  1.000E-06  1.000E-06  1.000E-06  1.000E-06  1.000E-06  1.000E-06  1.000E-06  1.000E-06  1.000E-06
       1.000E-06  1.000E-06  1.000E-06  1.000E-06  1.000E-06  1.000E-06  1.000E-06  1.000E-06  1.000E-06  1.000E-06  1.000E-06
       1.000E-06  1.000E-06  1.000E-06  1.000E-06  1.000E-06  1.000E-06  1.000E-06  1.000E-06  1.000E-06  1.000E-06  1.000E-06
       1.000E-06  1.000E-06  1.000E-06  1.000E-06  1.000E-06  1.000E-06  1.000E-06  1.000E-06  1.000E-06  1.000E-06  1.000E-06
       1.000E-06  1.000E-06  1.000E-06  1.000E-06  1.000E-06  1.000E-06  1.000E-06  1.000E-06  1.000E-06  1.000E-06  1.000E-06
       1.000E-06  1.000E-06  1.000E-06  1.000E-06  1.000E-06  1.000E-06  1.000E-06  1.000E-06  1.000E-06  1.000E-06  1.000E-06
       1.000E-06  1.000E-06  1.000E-06  1.000E-06  1.000E-06  1.000E-06  1.000E-06  1.000E-06  1.000E-06  1.000E-06  1.000E-06
       1.000E-06  1.000E-06  1.000E-06  1.000E-06  1.000E-06  1.000E-06  1.000E-06  1.000E-06  1.000E-06  1.000E-06  1.000E-06
       1.000E-06  1.000E-06  1.000E-06  1.000E-06  1.000E-06  1.000E-06  1.000E-06  1.000E-06  1.000E-06  1.000E-06  1.000E-06
       1.000E-06  1.000E-06  1.000E-06  1.000E-06  1.000E-06  1.000E-06  1.000E-06  1.000E-06  1.000E-06  1.000E-06  1.000E-06
       1.000E-06  1.000E-06  1.000E-06  1.000E-06  1.000E-06  1.000E-06  1.000E-06  1.000E-06  1.000E-06  1.000E-06  1.000E-06
       1.000E-06  1.000E-06  1.000E-06  1.000E-06  1.000E-06  1.000E-06  1.000E-06  1.000E-06  1.000E-06  1.000E-06  1.000E-06
       1.000E-06  1.000E-06  1.000E-06  1.000E-06  1.000E-06  1.000E-06  1.000E-06  1.000E-06  1.000E-06  1.000E-06  1.000E-06
       1.000E-06  1.000E-06  1.000E-06  1.000E-06  1.000E-06  1.000E-06  1.000E-06  1.000E-06  1.000E-06  1.000E-06  1.000E-06
       1.000E-06  1.000E-06  1.000E-06  1.000E-06  1.000E-06  1.000E-06  1.000E-06  1.000E-06  1.000E-06  1.000E-06  1.000E-06
       1.000E-06  1.000E-06  1.000E-06  1.000E-06  1.000E-06  1.000E-06  1.000E-06  1.000E-06  1.000E-06  1.000E-06  1.000E-06
       1.000E-06  1.000E-06  1.000E-06  1.000E-06  1.000E-06  1.000E-06  1.000E-06  1.000E-06  1.000E-06  1.000E-06  1.000E-06
       1.000E-06  1.000E-06  1.000E-06  1.000E-06  1.000E-06  1.000E-06  1.000E-06  1.000E-06  1.000E-06  1.000E-06  1.000E-06
       1.000E-06  1.000E-06  1.000E-06  1.000E-06  1.000E-06  1.000E-06  1.000E-06  1.000E-06  1.000E-06  1.000E-06  1.000E-06
       1.000E-06  1.000E-06  1.000E-06  1.000E-06  1.000E-06  1.000E-06  1.000E-06  1.000E-06  1.000E-06  1.000E-06  1.000E-06
       1.000E-06  1.000E-06  1.000E-06  1.000E-06  1.000E-06  1.000E-06  1.000E-06  1.000E-06  1.000E-06  1.000E-06  1.000E-06
       1.000E-06  1.000E-06  1.000E-06  1.000E-06  1.000E-06  1.000E-06  1.000E-06  1.000E-06  1.000E-06  1.000E-06  1.000E-06
       1.000E-06  1.000E-06  1.000E-06  1.000E-06  1.000E-06  1.000E-06  1.000E-06  1.000E-06  1.000E-06  1.000E-06  1.000E-06
       1.000E-06  1.000E-06  1.000E-06  1.000E-06  1.000E-06  1.000E-06  1.000E-06  1.000E-06  1.000E-06  1.000E-06  1.000E-06
       1.000E-06  1.000E-06  1.000E-06  1.000E-06  1.000E-06  1.000E-06  1.000E-06  1.000E-06  1.000E-06  1.000E-06  1.000E-06
       1.000E-06  1.000E-06  1.000E-06  1.000E-06  1.000E-06  1.000E-06  1.000E-06  1.000E-06  1.000E-06  1.000E-06  1.000E-06
       1.000E-06  1.000E-06  1.000E-06  1.000E-06  1.000E-06  1.000E-06  1.000E-06  1.000E-06  1.000E-06  1.000E-06  1.000E-06
       1.000E-06  1.000E-06  1.000E-06  1.000E-06  1.000E-06  1.000E-06  1.000E-06  1.000E-06  1.000E-06  1.000E-06  1.000E-06
       1.000E-06  1.000E-06  1.000E-06  1.000E-06  1.000E-06  1.000E-06  1.000E-06  1.000E-06  1.000E-06  1.000E-06  1.000E-06
       1.000E-06  1.000E-06  1.000E-06  1.000E-06  1.000E-06  1.000E-06  1.000E-06  1.000E-06  1.000E-06  1.000E-06  1.000E-06
       1.000E-06  1.000E-06  1.000E-06  1.000E-06  1.000E-06  1.000E-06  1.000E-06  1.000E-06  1.000E-06  1.000E-06  1.000E-06
       1.000E-06  1.000E-06  1.000E-06  1.000E-06  1.000E-06  1.000E-06  1.000E-06  1.000E-06  1.000E-06  1.000E-06  1.000E-06
       1.000E-06  1.000E-06  1.000E-06  1.000E-06  1.000E-06  1.000E-06  1.000E-06  1.000E-06  1.000E-06  1.000E-06  1.000E-06
       1.000E-06  1.000E-06  1.000E-06  1.000E-06  1.000E-06  1.000E-06  1.000E-06  1.000E-06  1.000E-06  1.000E-06  1.000E-06
       1.000E-06  1.000E-06  1.000E-06  1.000E-06  1.000E-06  1.000E-06  1.000E-06  1.000E-06  1.000E-06  1.000E-06  1.000E-06
       1.000E-06  1.000E-06  1.000E-06  1.000E-06  1.000E-06  1.000E-06  1.000E-06  1.000E-06  1.000E-06  1.000E-06  1.000E-06
       1.000E-06  1.000E-06  1.000E-06  1.000E-06  1.000E-06  1.000E-06  1.000E-06  1.000E-06  1.000E-06  1.000E-06  1.000E-06
       1.000E-06  1.000E-06  1.000E-06  1.000E-06  1.000E-06  1.000E-06  1.000E-06  1.000E-06  1.000E-06  1.000E-06  1.000E-06
       1.000E-06  1.000E-06  1.000E-06  1.000E-06  1.000E-06  1.000E-06  1.000E-06  1.000E-06  1.000E-06  1.000E-06  1.000E-06
       1.000E-06  1.000E-06  1.000E-06  1.000E-06  1.000E-06  1.000E-06  1.000E-06  1.000E-06  1.000E-06  1.000E-06  1.000E-06
       1.000E-06  1.000E-06  1.000E-06  1.000E-06  1.000E-06  1.000E-06  1.000E-06  1.000E-06  1.000E-06  1.000E-06  1.000E-06
       1.000E-06  1.000E-06  1.000E-06  1.000E-06  1.000E-06  1.000E-06  1.000E-06  1.000E-06  1.000E-06  1.000E-06  1.000E-06
       1.000E-06  1.000E-06  1.000E-06  1.000E-06  1.000E-06  1.000E-06  1.000E-06  1.000E-06  1.000E-06  1.000E-06  1.000E-06
       1.000E-06  1.000E-06  1.000E-06  1.000E-06  1.000E-06  1.000E-06  1.000E-06  1.000E-06  1.000E-06  1.000E-06  1.000E-06
       1.000E-06  1.000E-06  1.000E-06  1.000E-06  1.000E-06  1.000E-06  1.000E-06  1.000E-06  1.000E-06  1.000E-06  1.000E-06
       1.000E-06  1.000E-06  1.000E-06  1.000E-06  1.000E-06  1.000E-06  1.000E-06  1.000E-06  1.000E-06  1.000E-06  1.000E-06
       1.000E-06  1.000E-06  1.000E-06  1.000E-06  1.000E-06  1.000E-06  1.000E-06  1.000E-06  1.000E-06  1.000E-06  1.000E-06
       1.000E-06  1.000E-06  1.000E-06  1.000E-06  1.000E-06  1.000E-06  1.000E-06  1.000E-06  1.000E-06  1.000E-06  1.000E-06
       1.000E-06  1.000E-06  1.000E-06  1.000E-06  1.000E-06  1.000E-06  1.000E-06  1.000E-06  1.000E-06  1.000E-06  1.000E-06
       1.000E-06  1.000E-06  1.000E-06  1.000E-06  1.000E-06  1.000E-06  1.000E-06  1.000E-06  1.000E-06  1.000E-06  1.000E-06
       1.000E-06  1.000E-06  1.000E-06  1.000E-06  1.000E-06  1.000E-06  1.000E-06  1.000E-06  1.000E-06  1.000E-06  1.000E-06
       1.000E-06  1.000E-06  1.000E-06  1.000E-06  1.000E-06  1.000E-06  1.000E-06  1.000E-06  1.000E-06  1.000E-06  1.000E-06
       1.000E-06  1.000E-06  1.000E-06  1.000E-06  1.000E-06  1.000E-06  1.000E-06  1.000E-06  1.000E-06  1.000E-06  1.000E-06
       1.000E-06  1.000E-06  1.000E-06  1.000E-06  1.000E-06  1.000E-06  1.000E-06  1.000E-06  1.000E-06  1.000E-06  1.000E-06
       1.000E-06  1.000E-06  1.000E-06  1.000E-06  1.000E-06  1.000E-06  1.000E-06  1.000E-06  1.000E-06  1.000E-06  1.000E-06
       1.000E-06  1.000E-06  1.000E-06  1.000E-06  1.000E-06  1.000E-06  1.000E-06  1.000E-06  1.000E-06  1.000E-06  1.000E-06
       1.000E-06  1.000E-06  1.000E-06  1.000E-06  1.000E-06  1.000E-06  1.000E-06  1.000E-06  1.000E-06  1.000E-06  1.000E-06
       1.000E-06  1.000E-06  1.000E-06  1.000E-06  1.000E-06  1.000E-06  1.000E-06  1.000E-06  1.000E-06  1.000E-06  1.000E-06
       1.000E-06  1.000E-06  1.000E-06  1.000E-06  1.000E-06  1.000E-06  1.000E-06  1.000E-06  1.000E-06  1.000E-06  1.000E-06
       1.000E-06  1.000E-06  1.000E-06  1.000E-06  1.000E-06  1.000E-06  1.000E-06  1.000E-06  1.000E-06  1.000E-06  1.000E-06
       1.000E-06  1.000E-06  1.000E-06  1.000E-06  1.000E-06  1.000E-06  1.000E-06  1.000E-06  1.000E-06  1.000E-06  1.000E-06
       1.000E-06  1.000E-06  1.000E-06  1.000E-06  1.000E-06  1.000E-06  1.000E-06  1.000E-06  1.000E-06  1.000E-06  1.000E-06
       1.000E-06  1.000E-06  1.000E-06  1.000E-06  1.000E-06  1.000E-06  1.000E-06  1.000E-06  1.000E-06  1.000E-06  1.000E-06
       1.000E-06  1.000E-06  1.000E-06  1.000E-06  1.000E-06  1.000E-06  1.000E-06  1.000E-06  1.000E-06  1.000E-06  1.000E-06
       1.000E-06  1.000E-06  1.000E-06  1.000E-06  1.000E-06  1.000E-06  1.000E-06  1.000E-06  1.000E-06  1.000E-06  1.000E-06
       1.000E-06  1.000E-06  1.000E-06  1.000E-06  1.000E-06  1.000E-06  1.000E-06  1.000E-06  1.000E-06  1.000E-06  1.000E-06
       1.000E-06  1.000E-06  1.000E-06  1.000E-06  1.000E-06  1.000E-06  1.000E-06  1.000E-06  1.000E-06  1.000E-06  1.000E-06
       1.000E-06  1.000E-06  1.000E-06  1.000E-06  1.000E-06  1.000E-06  1.000E-06  1.000E-06  1.000E-06  1.000E-06  1.000E-06
       1.000E-06  1.000E-06  1.000E-06  1.000E-06  1.000E-06  1.000E-06  1.000E-06  1.000E-06  1.000E-06  1.000E-06  1.000E-06
       1.000E-06  1.000E-06  1.000E-06  1.000E-06  1.000E-06  1.000E-06  1.000E-06  1.000E-06  1.000E-06  1.000E-06  1.000E-06
       1.000E-06  1.000E-06  1.000E-06  1.000E-06  1.000E-06  1.000E-06  1.000E-06  1.000E-06  1.000E-06  1.000E-06  1.000E-06
       1.000E-06  1.000E-06  1.000E-06  1.000E-06  1.000E-06  1.000E-06  1.000E-06  1.000E-06  1.000E-06  1.000E-06  1.000E-06
       1.000E-06  1.000E-06  1.000E-06  1.000E-06  1.000E-06  1.000E-06  1.000E-06  1.000E-06  1.000E-06  1.000E-06  1.000E-06
       1.000E-06  1.000E-06  1.000E-06  1.000E-06  1.000E-06  1.000E-06  1.000E-06  1.000E-06  1.000E-06  1.000E-06  1.000E-06
       1.000E-06  1.000E-06  1.000E-06  1.000E-06  1.000E-06  1.000E-06  1.000E-06  1.000E-06  1.000E-06  1.000E-06  1.000E-06
       1.000E-06  1.000E-06  1.000E-06  1.000E-06  1.000E-06  1.000E-06  1.000E-06  1.000E-06  1.000E-06  1.000E-06  1.000E-06
       1.000E-06  1.000E-06  1.000E-06  1.000E-06  1.000E-06  1.000E-06  1.000E-06  1.000E-06  1.000E-06  1.000E-06  1.000E-06
       1.000E-06  1.000E-06  1.000E-06  1.000E-06  1.000E-06  1.000E-06  1.000E-06  1.000E-06  1.000E-06  1.000E-06  1.000E-06
       1.000E-06  1.000E-06  1.000E-06  1.000E-06  1.000E-06  1.000E-06  1.000E-06  1.000E-06  1.000E-06  1.000E-06  1.000E-06
       1.000E-06  1.000E-06  1.000E-06  1.000E-06  1.000E-06  1.000E-06  1.000E-06  1.000E-06  1.000E-06  1.000E-06  1.000E-06
       1.000E-06  1.000E-06  1.000E-06  1.000E-06  1.000E-06  1.000E-06  1.000E-06  1.000E-06  1.000E-06  1.000E-06  1.000E-06
       1.000E-06  1.000E-06  1.000E-06  1.000E-06  1.000E-06  1.000E-06  1.000E-06  1.000E-06  1.000E-06  1.000E-06  1.000E-06
       1.000E-06  1.000E-06  1.000E-06  1.000E-06  1.000E-06  1.000E-06  1.000E-06  1.000E-06  1.000E-06  1.000E-06  1.000E-06
       1.000E-06  1.000E-06  1.000E-06  1.000E-06  1.000E-06  1.000E-06  1.000E-06  1.000E-06  1.000E-06  1.000E-06  1.000E-06
       1.000E-06  1.000E-06  1.000E-06  1.000E-06  1.000E-06  1.000E-06  1.000E-06  1.000E-06  1.000E-06  1.000E-06  1.000E-06
       1.000E-06  1.000E-06  1.000E-06  1.000E-06  1.000E-06  1.000E-06  1.000E-06  1.000E-06  1.000E-06  1.000E-06  1.000E-06
       1.000E-06  1.000E-06  1.000E-06  1.000E-06  1.000E-06  1.000E-06  1.000E-06  1.000E-06  1.000E-06  1.000E-06  1.000E-06
       1.000E-06  1.000E-06  1.000E-06  1.000E-06  1.000E-06  1.000E-06  1.000E-06  1.000E-06  1.000E-06  1.000E-06  1.000E-06
       1.000E-06  1.000E-06  1.000E-06  1.000E-06  1.000E-06  1.000E-06  1.000E-06  1.000E-06  1.000E-06  1.000E-06  1.000E-06
       1.000E-06  1.000E-06  1.000E-06  1.000E-06  1.000E-06  1.000E-06  1.000E-06  1.000E-06  1.000E-06  1.000E-06  1.000E-06
       1.000E-06  1.000E-06  1.000E-06  1.000E-06  1.000E-06  1.000E-06  1.000E-06  1.000E-06  1.000E-06  1.000E-06  1.000E-06
       1.000E-06  1.000E-06  1.000E-06  1.000E-06  1.000E-06  1.000E-06  1.000E-06  1.000E-06  1.000E-06  1.000E-06  1.000E-06
       1.000E-06  1.000E-06  1.000E-06  1.000E-06  1.000E-06  1.000E-06  1.000E-06  1.000E-06  1.000E-06  1.000E-06  1.000E-06
       1.000E-06  1.000E-06  1.000E-06  1.000E-06  1.000E-06  1.000E-06  1.000E-06  1.000E-06  1.000E-06  1.000E-06  1.000E-06
       1.000E-06  1.000E-06  1.000E-06  1.000E-06  1.000E-06  1.000E-06  1.000E-06  1.000E-06  1.000E-06  1.000E-06  1.000E-06
       1.000E-06  1.000E-06  1.000E-06  1.000E-06  1.000E-06  1.000E-06  1.000E-06  1.000E-06  1.000E-06  1.000E-06  1.000E-06
       1.000E-06  1.000E-06  1.000E-06  1.000E-06  1.000E-06  1.000E-06  1.000E-06  1.000E-06  1.000E-06  1.000E-06  1.000E-06
       1.000E-06  1.000E-06  1.000E-06  1.000E-06  1.000E-06  1.000E-06  1.000E-06  1.000E-06  1.000E-06  1.000E-06  1.000E-06
       1.000E-06  1.000E-06  1.000E-06  1.000E-06  1.000E-06  1.000E-06  1.000E-06  1.000E-06  1.000E-06  1.000E-06  1.000E-06
       1.000E-06  1.000E-06  1.000E-06  1.000E-06  1.000E-06  1.000E-06  1.000E-06  1.000E-06  1.000E-06  1.000E-06  1.000E-06
       1.000E-06  1.000E-06  1.000E-06  1.000E-06  1.000E-06  1.000E-06  1.000E-06  1.000E-06  1.000E-06  1.000E-06  1.000E-06
       1.000E-06  1.000E-06  1.000E-06  1.000E-06  1.000E-06  1.000E-06  1.000E-06  1.000E-06  1.000E-06  1.000E-06  1.000E-06
       1.000E-06  1.000E-06  1.000E-06  1.000E-06  1.000E-06  1.000E-06  1.000E-06  1.000E-06  1.000E-06  1.000E-06  1.000E-06
       1.000E-06  1.000E-06  1.000E-06  1.000E-06  1.000E-06  1.000E-06  1.000E-06  1.000E-06  1.000E-06  1.000E-06  1.000E-06
       1.000E-06  1.000E-06  1.000E-06  1.000E-06  1.000E-06  1.000E-06  1.000E-06  1.000E-06  1.000E-06  1.000E-06  1.000E-06
       1.000E-06  1.000E-06  1.000E-06  1.000E-06  1.000E-06  1.000E-06  1.000E-06  1.000E-06  1.000E-06  1.000E-06  1.000E-06
       1.000E-06  1.000E-06  1.000E-06  1.000E-06  1.000E-06  1.000E-06  1.000E-06  1.000E-06  1.000E-06  1.000E-06  1.000E-06
       1.000E-06  1.000E-06  1.000E-06  1.000E-06  1.000E-06  1.000E-06  1.000E-06  1.000E-06  1.000E-06  1.000E-06  1.000E-06
       1.000E-06  1.000E-06  1.000E-06  1.000E-06  1.000E-06  1.000E-06  1.000E-06  1.000E-06  1.000E-06  1.000E-06  1.000E-06
       1.000E-06  1.000E-06  1.000E-06  1.000E-06  1.000E-06  1.000E-06  1.000E-06  1.000E-06  1.000E-06  1.000E-06  1.000E-06
       1.000E-06  1.000E-06  1.000E-06  1.000E-06  1.000E-06  1.000E-06  1.000E-06  1.000E-06  1.000E-06  1.000E-06  1.000E-06
       1.000E-06  1.000E-06  1.000E-06  1.000E-06  1.000E-06  1.000E-06  1.000E-06  1.000E-06  1.000E-06  1.000E-06  1.000E-06
       1.000E-06  1.000E-06  1.000E-06  1.000E-06  1.000E-06  1.000E-06  1.000E-06  1.000E-06  1.000E-06  1.000E-06  1.000E-06
       1.000E-06  1.000E-06  1.000E-06  1.000E-06  1.000E-06  1.000E-06  1.000E-06  1.000E-06  1.000E-06  1.000E-06  1.000E-06
       1.000E-06  1.000E-06  1.000E-06  1.000E-06  1.000E-06  1.000E-06  1.000E-06  1.000E-06  1.000E-06  1.000E-06  1.000E-06
       1.000E-06  1.000E-06  1.000E-06  1.000E-06  1.000E-06  1.000E-06  1.000E-06  1.000E-06  1.000E-06  1.000E-06  1.000E-06
       1.000E-06  1.000E-06  1.000E-06  1.000E-06  1.000E-06  1.000E-06  1.000E-06  1.000E-06  1.000E-06  1.000E-06  1.000E-06
       1.000E-06  1.000E-06  1.000E-06  1.000E-06  1.000E-06  1.000E-06  1.000E-06  1.000E-06  1.000E-06  1.000E-06  1.000E-06
       1.000E-06  1.000E-06  1.000E-06  1.000E-06  1.000E-06  1.000E-06  1.000E-06  1.000E-06  1.000E-06  1.000E-06  1.000E-06
       1.000E-06  1.000E-06  1.000E-06  1.000E-06  1.000E-06  1.000E-06  1.000E-06  1.000E-06  1.000E-06  1.000E-06  1.000E-06
       1.000E-06  1.000E-06  1.000E-06  1.000E-06  1.000E-06  1.000E-06  1.000E-06  1.000E-06  1.000E-06  1.000E-06  1.000E-06
       1.000E-06  1.000E-06  1.000E-06  1.000E-06  1.000E-06  1.000E-06  1.000E-06  1.000E-06  1.000E-06  1.000E-06  1.000E-06
       1.000E-06  1.000E-06  1.000E-06  1.000E-06  1.000E-06  1.000E-06  1.000E-06  1.000E-06  1.000E-06  1.000E-06  1.000E-06
       1.000E-06  1.000E-06  1.000E-06  1.000E-06  1.000E-06  1.000E-06  1.000E-06  1.000E-06  1.000E-06  1.000E-06  1.000E-06
       1.000E-06  1.000E-06  1.000E-06  1.000E-06  1.000E-06  1.000E-06  1.000E-06  1.000E-06  1.000E-06  1.000E-06  1.000E-06
       1.000E-06  1.000E-06  1.000E-06  1.000E-06  1.000E-06  1.000E-06  1.000E-06  1.000E-06  1.000E-06  1.000E-06  1.000E-06
       1.000E-06  1.000E-06  1.000E-06  1.000E-06  1.000E-06  1.000E-06  1.000E-06  1.000E-06  1.000E-06  1.000E-06  1.000E-06
       1.000E-06  1.000E-06  1.000E-06  1.000E-06  1.000E-06  1.000E-06  1.000E-06  1.000E-06  1.000E-06  1.000E-06  1.000E-06
       1.000E-06  1.000E-06  1.000E-06  1.000E-06  1.000E-06  1.000E-06  1.000E-06  1.000E-06  1.000E-06  1.000E-06  1.000E-06
       1.000E-06  1.000E-06  1.000E-06  1.000E-06  1.000E-06  1.000E-06  1.000E-06  1.000E-06  1.000E-06  1.000E-06  1.000E-06
       1.000E-06  1.000E-06  1.000E-06  1.000E-06  1.000E-06  1.000E-06  1.000E-06  1.000E-06  1.000E-06  1.000E-06  1.000E-06
       1.000E-06  1.000E-06  1.000E-06  1.000E-06  1.000E-06  1.000E-06  1.000E-06  1.000E-06  1.000E-06  1.000E-06  1.000E-06
       1.000E-06  1.000E-06  1.000E-06  1.000E-06  1.000E-06  1.000E-06  1.000E-06  1.000E-06  1.000E-06  1.000E-06  1.000E-06
       1.000E-06  1.000E-06  1.000E-06  1.000E-06  1.000E-06  1.000E-06  1.000E-06  1.000E-06  1.000E-06  1.000E-06  1.000E-06
       1.000E-06  1.000E-06  1.000E-06  1.000E-06  1.000E-06  1.000E-06  1.000E-06  1.000E-06  1.000E-06  1.000E-06  1.000E-06
       1.000E-06  1.000E-06  1.000E-06  1.000E-06  1.000E-06  1.000E-06  1.000E-06  1.000E-06  1.000E-06  1.000E-06  1.000E-06
       1.000E-06  1.000E-06  1.000E-06  1.000E-06  1.000E-06  1.000E-06  1.000E-06  1.000E-06  1.000E-06  1.000E-06  1.000E-06
       1.000E-06  1.000E-06  1.000E-06  1.000E-06  1.000E-06  1.000E-06  1.000E-06  1.000E-06  1.000E-06  1.000E-06  1.000E-06
       1.000E-06  1.000E-06  1.000E-06  1.000E-06  1.000E-06  1.000E-06  1.000E-06  1.000E-06  1.000E-06  1.000E-06  1.000E-06
       1.000E-06  1.000E-06  1.000E-06  1.000E-06  1.000E-06  1.000E-06  1.000E-06  1.000E-06  1.000E-06  1.000E-06  1.000E-06
       1.000E-06  1.000E-06  1.000E-06  1.000E-06  1.000E-06  1.000E-06  1.000E-06  1.000E-06  1.000E-06  1.000E-06  1.000E-06
       1.000E-06  1.000E-06  1.000E-06  1.000E-06  1.000E-06  1.000E-06  1.000E-06  1.000E-06  1.000E-06  1.000E-06  1.000E-06
       1.000E-06  1.000E-06  1.000E-06  1.000E-06  1.000E-06  1.000E-06  1.000E-06  1.000E-06  1.000E-06  1.000E-06  1.000E-06
       1.000E-06  1.000E-06  1.000E-06  1.000E-06  1.000E-06  1.000E-06  1.000E-06  1.000E-06  1.000E-06  1.000E-06  1.000E-06
       1.000E-06  1.000E-06  1.000E-06  1.000E-06  1.000E-06  1.000E-06  1.000E-06  1.000E-06  1.000E-06  1.000E-06  1.000E-06
       1.000E-06  1.000E-06  1.000E-06  1.000E-06  1.000E-06  1.000E-06  1.000E-06  1.000E-06  1.000E-06  1.000E-06  1.000E-06
       1.000E-06  1.000E-06  1.000E-06  1.000E-06  1.000E-06  1.000E-06  1.000E-06  1.000E-06  1.000E-06  1.000E-06  1.000E-06
       1.000E-06  1.000E-06  1.000E-06  1.000E-06  1.000E-06  1.000E-06  1.000E-06  1.000E-06  1.000E-06  1.000E-06  1.000E-06
       1.000E-06  1.000E-06  1.000E-06  1.000E-06  1.000E-06  1.000E-06  1.000E-06  1.000E-06  1.000E-06  1.000E-06  1.000E-06
       1.000E-06  1.000E-06  1.000E-06  1.000E-06  1.000E-06  1.000E-06  1.000E-06  1.000E-06  1.000E-06  1.000E-06  1.000E-06
       1.000E-06  1.000E-06  1.000E-06  1.000E-06  1.000E-06  1.000E-06  1.000E-06  1.000E-06  1.000E-06  1.000E-06  1.000E-06
       1.000E-06  1.000E-06  1.000E-06  1.000E-06  1.000E-06  1.000E-06  1.000E-06  1.000E-06  1.000E-06  1.000E-06  1.000E-06
       1.000E-06  1.000E-06  1.000E-06  1.000E-06  1.000E-06  1.000E-06  1.000E-06  1.000E-06  1.000E-06  1.000E-06  1.000E-06
       1.000E-06  1.000E-06  1.000E-06  1.000E-06  1.000E-06  1.000E-06  1.000E-06  1.000E-06  1.000E-06  1.000E-06  1.000E-06
       1.000E-06  1.000E-06  1.000E-06  1.000E-06  1.000E-06  1.000E-06  1.000E-06  1.000E-06  1.000E-06  1.000E-06  1.000E-06
       1.000E-06  1.000E-06  1.000E-06  1.000E-06  1.000E-06  1.000E-06  1.000E-06  1.000E-06  1.000E-06  1.000E-06  1.000E-06
       1.000E-06  1.000E-06  1.000E-06  1.000E-06  1.000E-06  1.000E-06  1.000E-06  1.000E-06  1.000E-06  1.000E-06  1.000E-06
       1.000E-06  1.000E-06  1.000E-06  1.000E-06  1.000E-06  1.000E-06  1.000E-06  1.000E-06  1.000E-06  1.000E-06  1.000E-06
       1.000E-06  1.000E-06  1.000E-06  1.000E-06  1.000E-06  1.000E-06  1.000E-06  1.000E-06  1.000E-06  1.000E-06  1.000E-06
       1.000E-06  1.000E-06  1.000E-06  1.000E-06  1.000E-06  1.000E-06  1.000E-06  1.000E-06  1.000E-06  1.000E-06  1.000E-06
       1.000E-06  1.000E-06  1.000E-06  1.000E-06  1.000E-06  1.000E-06  1.000E-06  1.000E-06  1.000E-06  1.000E-06  1.000E-06
       1.000E-06  1.000E-06  1.000E-06  1.000E-06  1.000E-06  1.000E-06  1.000E-06  1.000E-06  1.000E-06  1.000E-06  1.000E-06
       1.000E-06  1.000E-06  1.000E-06  1.000E-06  1.000E-06  1.000E-06  1.000E-06  1.000E-06  1.000E-06  1.000E-06  1.000E-06
       1.000E-06  1.000E-06  1.000E-06  1.000E-06  1.000E-06  1.000E-06  1.000E-06  1.000E-06  1.000E-06  1.000E-06  1.000E-06
       1.000E-06  1.000E-06  1.000E-06  1.000E-06  1.000E-06  1.000E-06  1.000E-06  1.000E-06  1.000E-06  1.000E-06  1.000E-06
       1.000E-06  1.000E-06  1.000E-06  1.000E-06  1.000E-06  1.000E-06  1.000E-06  1.000E-06  1.000E-06  1.000E-06  1.000E-06
       1.000E-06  1.000E-06  1.000E-06  1.000E-06  1.000E-06  1.000E-06  1.000E-06  1.000E-06  1.000E-06  1.000E-06  1.000E-06
       1.000E-06  1.000E-06  1.000E-06  1.000E-06  1.000E-06  1.000E-06  1.000E-06  1.000E-06  1.000E-06  1.000E-06  1.000E-06
       1.000E-06  1.000E-06  1.000E-06  1.000E-06  1.000E-06  1.000E-06  1.000E-06  1.000E-06  1.000E-06  1.000E-06  1.000E-06
       1.000E-06  1.000E-06  1.000E-06  1.000E-06  1.000E-06  1.000E-06  1.000E-06  1.000E-06  1.000E-06  1.000E-06  1.000E-06
       1.000E-06  1.000E-06  1.000E-06  1.000E-06  1.000E-06  1.000E-06  1.000E-06  1.000E-06  1.000E-06  1.000E-06  1.000E-06
       1.000E-06  1.000E-06  1.000E-06  1.000E-06  1.000E-06  1.000E-06  1.000E-06  1.000E-06  1.000E-06  1.000E-06  1.000E-06
       1.000E-06  1.000E-06  1.000E-06  1.000E-06  1.000E-06  1.000E-06  1.000E-06  1.000E-06  1.000E-06  1.000E-06  1.000E-06
       1.000E-06  1.000E-06  1.000E-06  1.000E-06  1.000E-06  1.000E-06  1.000E-06  1.000E-06  1.000E-06  1.000E-06  1.000E-06
       1.000E-06  1.000E-06  1.000E-06  1.000E-06  1.000E-06  1.000E-06  1.000E-06  1.000E-06  1.000E-06  1.000E-06  1.000E-06
       1.000E-06  1.000E-06  1.000E-06  1.000E-06  1.000E-06  1.000E-06  1.000E-06  1.000E-06  1.000E-06  1.000E-06  1.000E-06
       1.000E-06  1.000E-06  1.000E-06  1.000E-06  1.000E-06  1.000E-06  1.000E-06  1.000E-06  1.000E-06  1.000E-06  1.000E-06
       1.000E-06  1.000E-06  1.000E-06  1.000E-06  1.000E-06  1.000E-06  1.000E-06  1.000E-06  1.000E-06  1.000E-06  1.000E-06
       1.000E-06  1.000E-06  1.000E-06  1.000E-06  1.000E-06  1.000E-06  1.000E-06  1.000E-06  1.000E-06  1.000E-06  1.000E-06
       1.000E-06  1.000E-06  1.000E-06  1.000E-06  1.000E-06  1.000E-06  1.000E-06  1.000E-06  1.000E-06  1.000E-06  1.000E-06
       1.000E-06  1.000E-06  1.000E-06  1.000E-06  1.000E-06  1.000E-06  1.000E-06  1.000E-06  1.000E-06  1.000E-06  1.000E-06
       1.000E-06  1.000E-06  1.000E-06  1.000E-06  1.000E-06  1.000E-06  1.000E-06  1.000E-06  1.000E-06  1.000E-06  1.000E-06
       1.000E-06  1.000E-06  1.000E-06  1.000E-06  1.000E-06  1.000E-06  1.000E-06  1.000E-06  1.000E-06  1.000E-06  1.000E-06
       1.000E-06  1.000E-06  1.000E-06  1.000E-06  1.000E-06  1.000E-06  1.000E-06  1.000E-06  1.000E-06  1.000E-06  1.000E-06
       1.000E-06  1.000E-06  1.000E-06  1.000E-06  1.000E-06  1.000E-06  1.000E-06  1.000E-06  1.000E-06  1.000E-06  1.000E-06
       1.000E-06  1.000E-06  1.000E-06  1.000E-06  1.000E-06  1.000E-06  1.000E-06  1.000E-06  1.000E-06  1.000E-06  1.000E-06
       1.000E-06  1.000E-06  1.000E-06  1.000E-06  1.000E-06  1.000E-06  1.000E-06  1.000E-06  1.000E-06  1.000E-06  1.000E-06
       1.000E-06  1.000E-06  1.000E-06  1.000E-06  1.000E-06  1.000E-06  1.000E-06  1.000E-06  1.000E-06  1.000E-06  1.000E-06
       1.000E-06  1.000E-06  1.000E-06  1.000E-06  1.000E-06  1.000E-06  1.000E-06  1.000E-06  1.000E-06  1.000E-06  1.000E-06
       1.000E-06  1.000E-06  1.000E-06  1.000E-06  1.000E-06  1.000E-06  1.000E-06  1.000E-06  1.000E-06  1.000E-06  1.000E-06
       1.000E-06  1.000E-06  1.000E-06  1.000E-06  1.000E-06  1.000E-06  1.000E-06  1.000E-06  1.000E-06  1.000E-06  1.000E-06
       1.000E-06  1.000E-06  1.000E-06  1.000E-06  1.000E-06  1.000E-06  1.000E-06  1.000E-06  1.000E-06  1.000E-06  1.000E-06
       1.000E-06  1.000E-06  1.000E-06  1.000E-06  1.000E-06  1.000E-06  1.000E-06  1.000E-06  1.000E-06  1.000E-06  1.000E-06
       1.000E-06  1.000E-06  1.000E-06  1.000E-06  1.000E-06  1.000E-06  1.000E-06  1.000E-06  1.000E-06  1.000E-06  1.000E-06
       1.000E-06  1.000E-06  1.000E-06  1.000E-06  1.000E-06  1.000E-06  1.000E-06  1.000E-06  1.000E-06  1.000E-06  1.000E-06
       1.000E-06  1.000E-06  1.000E-06  1.000E-06  1.000E-06  1.000E-06  1.000E-06  1.000E-06  1.000E-06  1.000E-06  1.000E-06
       1.000E-06  1.000E-06  1.000E-06  1.000E-06  1.000E-06  1.000E-06  1.000E-06  1.000E-06  1.000E-06  1.000E-06  1.000E-06
       1.000E-06  1.000E-06  1.000E-06  1.000E-06  1.000E-06  1.000E-06  1.000E-06  1.000E-06  1.000E-06  1.000E-06  1.000E-06
       1.000E-06  1.000E-06  1.000E-06  1.000E-06  1.000E-06  1.000E-06  1.000E-06  1.000E-06  1.000E-06  1.000E-06  1.000E-06
       1.000E-06  1.000E-06  1.000E-06  1.000E-06  1.000E-06  1.000E-06  1.000E-06  1.000E-06  1.000E-06  1.000E-06  1.000E-06
       1.000E-06  1.000E-06  1.000E-06  1.000E-06  1.000E-06  1.000E-06  1.000E-06  1.000E-06  1.000E-06  1.000E-06  1.000E-06
       1.000E-06  1.000E-06  1.000E-06  1.000E-06  1.000E-06  1.000E-06  1.000E-06  1.000E-06  1.000E-06  1.000E-06  1.000E-06
       1.000E-06  1.000E-06  1.000E-06  1.000E-06  1.000E-06  1.000E-06  1.000E-06  1.000E-06  1.000E-06  1.000E-06  1.000E-06
       1.000E-06  1.000E-06  1.000E-06  1.000E-06  1.000E-06  1.000E-06  1.000E-06  1.000E-06  1.000E-06  1.000E-06  1.000E-06
       1.000E-06  1.000E-06  1.000E-06  1.000E-06  1.000E-06  1.000E-06  1.000E-06  1.000E-06  1.000E-06  1.000E-06  1.000E-06
       1.000E-06  1.000E-06  1.000E-06  1.000E-06  1.000E-06  1.000E-06  1.000E-06  1.000E-06  1.000E-06  1.000E-06  1.000E-06
       1.000E-06  1.000E-06  1.000E-06  1.000E-06  1.000E-06  1.000E-06  1.000E-06  1.000E-06  1.000E-06  1.000E-06  1.000E-06
       1.000E-06  1.000E-06  1.000E-06  1.000E-06  1.000E-06  1.000E-06  1.000E-06  1.000E-06  1.000E-06  1.000E-06  1.000E-06
       1.000E-06  1.000E-06  1.000E-06  1.000E-06  1.000E-06  1.000E-06  1.000E-06  1.000E-06  1.000E-06  1.000E-06  1.000E-06
       1.000E-06  1.000E-06  1.000E-06  1.000E-06  1.000E-06  1.000E-06  1.000E-06  1.000E-06  1.000E-06  1.000E-06  1.000E-06
       1.000E-06  1.000E-06  1.000E-06  1.000E-06  1.000E-06  1.000E-06  1.000E-06  1.000E-06  1.000E-06  1.000E-06  1.000E-06
       1.000E-06  1.000E-06  1.000E-06  1.000E-06  1.000E-06  1.000E-06  1.000E-06  1.000E-06  1.000E-06  1.000E-06  1.000E-06
       1.000E-06  1.000E-06  1.000E-06  1.000E-06  1.000E-06  1.000E-06  1.000E-06  1.000E-06  1.000E-06  1.000E-06  1.000E-06
       1.000E-06  1.000E-06  1.000E-06  1.000E-06  1.000E-06  1.000E-06  1.000E-06  1.000E-06  1.000E-06  1.000E-06  1.000E-06
       1.000E-06  1.000E-06  1.000E-06  1.000E-06  1.000E-06  1.000E-06  1.000E-06  1.000E-06  1.000E-06  1.000E-06  1.000E-06
       1.000E-06  1.000E-06  1.000E-06  1.000E-06  1.000E-06  1.000E-06  1.000E-06  1.000E-06  1.000E-06  1.000E-06  1.000E-06
       1.000E-06  1.000E-06  1.000E-06  1.000E-06  1.000E-06  1.000E-06  1.000E-06  1.000E-06  1.000E-06  1.000E-06  1.000E-06
       1.000E-06  1.000E-06  1.000E-06  1.000E-06  1.000E-06  1.000E-06  1.000E-06  1.000E-06  1.000E-06  1.000E-06  1.000E-06
       1.000E-06  1.000E-06  1.000E-06  1.000E-06  1.000E-06  1.000E-06  1.000E-06  1.000E-06  1.000E-06  1.000E-06  1.000E-06
       1.000E-06  1.000E-06  1.000E-06  1.000E-06  1.000E-06  1.000E-06  1.000E-06  1.000E-06  1.000E-06  1.000E-06  1.000E-06
       1.000E-06  1.000E-06  1.000E-06  1.000E-06  1.000E-06  1.000E-06  1.000E-06  1.000E-06  1.000E-06  1.000E-06  1.000E-06
       1.000E-06  1.000E-06  1.000E-06  1.000E-06  1.000E-06  1.000E-06  1.000E-06  1.000E-06  1.000E-06  1.000E-06  1.000E-06
       1.000E-06  1.000E-06  1.000E-06  1.000E-06  1.000E-06  1.000E-06  1.000E-06  1.000E-06  1.000E-06  1.000E-06  1.000E-06
       1.000E-06  1.000E-06  1.000E-06  1.000E-06  1.000E-06  1.000E-06  1.000E-06  1.000E-06  1.000E-06  1.000E-06  1.000E-06
       1.000E-06  1.000E-06  1.000E-06  1.000E-06  1.000E-06  1.000E-06  1.000E-06  1.000E-06  1.000E-06  1.000E-06  1.000E-06
       1.000E-06  1.000E-06  1.000E-06  1.000E-06  1.000E-06  1.000E-06  1.000E-06  1.000E-06  1.000E-06  1.000E-06  1.000E-06
       1.000E-06  1.000E-06  1.000E-06  1.000E-06  1.000E-06  1.000E-06  1.000E-06  1.000E-06  1.000E-06  1.000E-06  1.000E-06
       1.000E-06  1.000E-06  1.000E-06  1.000E-06  1.000E-06  1.000E-06  1.000E-06  1.000E-06  1.000E-06  1.000E-06  1.000E-06
       1.000E-06  1.000E-06  1.000E-06  1.000E-06  1.000E-06  1.000E-06  1.000E-06  1.000E-06  1.000E-06  1.000E-06  1.000E-06
       1.000E-06  1.000E-06  1.000E-06  1.000E-06  1.000E-06  1.000E-06  1.000E-06  1.000E-06  1.000E-06  1.000E-06  1.000E-06
       1.000E-06  1.000E-06  1.000E-06  1.000E-06  1.000E-06  1.000E-06  1.000E-06  1.000E-06  1.000E-06  1.000E-06  1.000E-06
       1.000E-06  1.000E-06  1.000E-06  1.000E-06  1.000E-06  1.000E-06  1.000E-06  1.000E-06  1.000E-06  1.000E-06  1.000E-06
       1.000E-06  1.000E-06  1.000E-06  1.000E-06  1.000E-06  1.000E-06  1.000E-06  1.000E-06  1.000E-06  1.000E-06  1.000E-06
       1.000E-06  1.000E-06  1.000E-06  1.000E-06  1.000E-06  1.000E-06  1.000E-06  1.000E-06  1.000E-06  1.000E-06  1.000E-06
       1.000E-06  1.000E-06  1.000E-06  1.000E-06  1.000E-06  1.000E-06  1.000E-06  1.000E-06  1.000E-06  1.000E-06  1.000E-06
       1.000E-06  1.000E-06  1.000E-06  1.000E-06  1.000E-06  1.000E-06  1.000E-06  1.000E-06  1.000E-06  1.000E-06  1.000E-06
       1.000E-06  1.000E-06  1.000E-06  1.000E-06  1.000E-06  1.000E-06  1.000E-06  1.000E-06  1.000E-06  1.000E-06  1.000E-06
       1.000E-06  1.000E-06  1.000E-06  1.000E-06  1.000E-06  1.000E-06  1.000E-06  1.000E-06  1.000E-06  1.000E-06  1.000E-06
       1.000E-06  1.000E-06  1.000E-06  1.000E-06  1.000E-06  1.000E-06  1.000E-06  1.000E-06  1.000E-06  1.000E-06  1.000E-06
       1.000E-06  1.000E-06  1.000E-06  1.000E-06  1.000E-06  1.000E-06  1.000E-06  1.000E-06  1.000E-06  1.000E-06  1.000E-06
       1.000E-06  1.000E-06  1.000E-06  1.000E-06  1.000E-06  1.000E-06  1.000E-06  1.000E-06  1.000E-06  1.000E-06  1.000E-06
       1.000E-06  1.000E-06  1.000E-06  1.000E-06  1.000E-06  1.000E-06  1.000E-06  1.000E-06  1.000E-06  1.000E-06  1.000E-06
       1.000E-06  1.000E-06  1.000E-06  1.000E-06  1.000E-06  1.000E-06  1.000E-06  1.000E-06  1.000E-06  1.000E-06  1.000E-06
       1.000E-06  1.000E-06  1.000E-06  1.000E-06  1.000E-06  1.000E-06  1.000E-06  1.000E-06  1.000E-06  1.000E-06  1.000E-06
       1.000E-06  1.000E-06  1.000E-06  1.000E-06  1.000E-06  1.000E-06  1.000E-06  1.000E-06  1.000E-06  1.000E-06  1.000E-06
       1.000E-06  1.000E-06  1.000E-06  1.000E-06  1.000E-06  1.000E-06  1.000E-06  1.000E-06  1.000E-06  1.000E-06  1.000E-06
       1.000E-06  1.000E-06  1.000E-06  1.000E-06  1.000E-06  1.000E-06  1.000E-06  1.000E-06  1.000E-06  1.000E-06  1.000E-06
       1.000E-06  1.000E-06  1.000E-06  1.000E-06  1.000E-06  1.000E-06  1.000E-06  1.000E-06  1.000E-06  1.000E-06  1.000E-06
       1.000E-06  1.000E-06  1.000E-06  1.000E-06  1.000E-06  1.000E-06  1.000E-06  1.000E-06  1.000E-06  1.000E-06  1.000E-06
       1.000E-06  1.000E-06  1.000E-06  1.000E-06  1.000E-06  1.000E-06  1.000E-06  1.000E-06  1.000E-06  1.000E-06  1.000E-06
       1.000E-06  1.000E-06  1.000E-06  1.000E-06  1.000E-06  1.000E-06  1.000E-06  1.000E-06  1.000E-06  1.000E-06  1.000E-06
       1.000E-06  1.000E-06  1.000E-06  1.000E-06  1.000E-06  1.000E-06  1.000E-06  1.000E-06  1.000E-06  1.000E-06  1.000E-06
       1.000E-06  1.000E-06  1.000E-06  1.000E-06  1.000E-06  1.000E-06  1.000E-06  1.000E-06  1.000E-06  1.000E-06  1.000E-06
       1.000E-06  1.000E-06  1.000E-06  1.000E-06  1.000E-06  1.000E-06  1.000E-06  1.000E-06  1.000E-06  1.000E-06  1.000E-06
       1.000E-06  1.000E-06  1.000E-06  1.000E-06  1.000E-06  1.000E-06  1.000E-06  1.000E-06  1.000E-06  1.000E-06  1.000E-06
       1.000E-06  1.000E-06  1.000E-06  1.000E-06  1.000E-06  1.000E-06  1.000E-06  1.000E-06  1.000E-06  1.000E-06

         SPECIFIC STORAGE FOR LAYER 2
       1.000E-06  1.000E-06  1.000E-06  1.000E-06  1.000E-06  1.000E-06  1.000E-06  1.000E-06  1.000E-06  1.000E-06  1.000E-06
       1.000E-06  1.000E-06  1.000E-06  1.000E-06  1.000E-06  1.000E-06  1.000E-06  1.000E-06  1.000E-06  1.000E-06  1.000E-06
       1.000E-06  1.000E-06  1.000E-06  1.000E-06  1.000E-06  1.000E-06  1.000E-06  1.000E-06  1.000E-06  1.000E-06  1.000E-06
       1.000E-06  1.000E-06  1.000E-06  1.000E-06  1.000E-06  1.000E-06  1.000E-06  1.000E-06  1.000E-06  1.000E-06  1.000E-06
       1.000E-06  1.000E-06  1.000E-06  1.000E-06  1.000E-06  1.000E-06  1.000E-06  1.000E-06  1.000E-06  1.000E-06  1.000E-06
       1.000E-06  1.000E-06  1.000E-06  1.000E-06  1.000E-06  1.000E-06  1.000E-06  1.000E-06  1.000E-06  1.000E-06  1.000E-06
       1.000E-06  1.000E-06  1.000E-06  1.000E-06  1.000E-06  1.000E-06  1.000E-06  1.000E-06  1.000E-06  1.000E-06  1.000E-06
       1.000E-06  1.000E-06  1.000E-06  1.000E-06  1.000E-06  1.000E-06  1.000E-06  1.000E-06  1.000E-06  1.000E-06  1.000E-06
       1.000E-06  1.000E-06  1.000E-06  1.000E-06  1.000E-06  1.000E-06  1.000E-06  1.000E-06  1.000E-06  1.000E-06  1.000E-06
       1.000E-06  1.000E-06  1.000E-06  1.000E-06  1.000E-06  1.000E-06  1.000E-06  1.000E-06  1.000E-06  1.000E-06  1.000E-06
       1.000E-06  1.000E-06  1.000E-06  1.000E-06  1.000E-06  1.000E-06  1.000E-06  1.000E-06  1.000E-06  1.000E-06  1.000E-06
       1.000E-06  1.000E-06  1.000E-06  1.000E-06  1.000E-06  1.000E-06  1.000E-06  1.000E-06  1.000E-06  1.000E-06  1.000E-06
       1.000E-06  1.000E-06  1.000E-06  1.000E-06  1.000E-06  1.000E-06  1.000E-06  1.000E-06  1.000E-06  1.000E-06  1.000E-06
       1.000E-06  1.000E-06  1.000E-06  1.000E-06  1.000E-06  1.000E-06  1.000E-06  1.000E-06  1.000E-06  1.000E-06  1.000E-06
       1.000E-06  1.000E-06  1.000E-06  1.000E-06  1.000E-06  1.000E-06  1.000E-06  1.000E-06  1.000E-06  1.000E-06  1.000E-06
       1.000E-06  1.000E-06  1.000E-06  1.000E-06  1.000E-06  1.000E-06  1.000E-06  1.000E-06  1.000E-06  1.000E-06  1.000E-06
       1.000E-06  1.000E-06  1.000E-06  1.000E-06  1.000E-06  1.000E-06  1.000E-06  1.000E-06  1.000E-06  1.000E-06  1.000E-06
       1.000E-06  1.000E-06  1.000E-06  1.000E-06  1.000E-06  1.000E-06  1.000E-06  1.000E-06  1.000E-06  1.000E-06  1.000E-06
       1.000E-06  1.000E-06  1.000E-06  1.000E-06  1.000E-06  1.000E-06  1.000E-06  1.000E-06  1.000E-06  1.000E-06  1.000E-06
       1.000E-06  1.000E-06  1.000E-06  1.000E-06  1.000E-06  1.000E-06  1.000E-06  1.000E-06  1.000E-06  1.000E-06  1.000E-06
       1.000E-06  1.000E-06  1.000E-06  1.000E-06  1.000E-06  1.000E-06  1.000E-06  1.000E-06  1.000E-06  1.000E-06  1.000E-06
       1.000E-06  1.000E-06  1.000E-06  1.000E-06  1.000E-06  1.000E-06  1.000E-06  1.000E-06  1.000E-06  1.000E-06  1.000E-06
       1.000E-06  1.000E-06  1.000E-06  1.000E-06  1.000E-06  1.000E-06  1.000E-06  1.000E-06  1.000E-06  1.000E-06  1.000E-06
       1.000E-06  1.000E-06  1.000E-06  1.000E-06  1.000E-06  1.000E-06  1.000E-06  1.000E-06  1.000E-06  1.000E-06  1.000E-06
       1.000E-06  1.000E-06  1.000E-06  1.000E-06  1.000E-06  1.000E-06  1.000E-06  1.000E-06  1.000E-06  1.000E-06  1.000E-06
       1.000E-06  1.000E-06  1.000E-06  1.000E-06  1.000E-06  1.000E-06  1.000E-06  1.000E-06  1.000E-06  1.000E-06  1.000E-06
       1.000E-06  1.000E-06  1.000E-06  1.000E-06  1.000E-06  1.000E-06  1.000E-06  1.000E-06  1.000E-06  1.000E-06  1.000E-06
       1.000E-06  1.000E-06  1.000E-06  1.000E-06  1.000E-06  1.000E-06  1.000E-06  1.000E-06  1.000E-06  1.000E-06  1.000E-06
       1.000E-06  1.000E-06  1.000E-06  1.000E-06  1.000E-06  1.000E-06  1.000E-06  1.000E-06  1.000E-06  1.000E-06  1.000E-06
       1.000E-06  1.000E-06  1.000E-06  1.000E-06  1.000E-06  1.000E-06  1.000E-06  1.000E-06  1.000E-06  1.000E-06  1.000E-06
       1.000E-06  1.000E-06  1.000E-06  1.000E-06  1.000E-06  1.000E-06  1.000E-06  1.000E-06  1.000E-06  1.000E-06  1.000E-06
       1.000E-06  1.000E-06  1.000E-06  1.000E-06  1.000E-06  1.000E-06  1.000E-06  1.000E-06  1.000E-06  1.000E-06  1.000E-06
       1.000E-06  1.000E-06  1.000E-06  1.000E-06  1.000E-06  1.000E-06  1.000E-06  1.000E-06  1.000E-06  1.000E-06  1.000E-06
       1.000E-06  1.000E-06  1.000E-06  1.000E-06  1.000E-06  1.000E-06  1.000E-06  1.000E-06  1.000E-06  1.000E-06  1.000E-06
       1.000E-06  1.000E-06  1.000E-06  1.000E-06  1.000E-06  1.000E-06  1.000E-06  1.000E-06  1.000E-06  1.000E-06  1.000E-06
       1.000E-06  1.000E-06  1.000E-06  1.000E-06  1.000E-06  1.000E-06  1.000E-06  1.000E-06  1.000E-06  1.000E-06  1.000E-06
       1.000E-06  1.000E-06  1.000E-06  1.000E-06  1.000E-06  1.000E-06  1.000E-06  1.000E-06  1.000E-06  1.000E-06  1.000E-06
       1.000E-06  1.000E-06  1.000E-06  1.000E-06  1.000E-06  1.000E-06  1.000E-06  1.000E-06  1.000E-06  1.000E-06  1.000E-06
       1.000E-06  1.000E-06  1.000E-06  1.000E-06  1.000E-06  1.000E-06  1.000E-06  1.000E-06  1.000E-06  1.000E-06  1.000E-06
       1.000E-06  1.000E-06  1.000E-06  1.000E-06  1.000E-06  1.000E-06  1.000E-06  1.000E-06  1.000E-06  1.000E-06  1.000E-06
       1.000E-06  1.000E-06  1.000E-06  1.000E-06  1.000E-06  1.000E-06  1.000E-06  1.000E-06  1.000E-06  1.000E-06  1.000E-06
       1.000E-06  1.000E-06  1.000E-06  1.000E-06  1.000E-06  1.000E-06  1.000E-06  1.000E-06  1.000E-06  1.000E-06  1.000E-06
       1.000E-06  1.000E-06  1.000E-06  1.000E-06  1.000E-06  1.000E-06  1.000E-06  1.000E-06  1.000E-06  1.000E-06  1.000E-06
       1.000E-06  1.000E-06  1.000E-06  1.000E-06  1.000E-06  1.000E-06  1.000E-06  1.000E-06  1.000E-06  1.000E-06  1.000E-06
       1.000E-06  1.000E-06  1.000E-06  1.000E-06  1.000E-06  1.000E-06  1.000E-06  1.000E-06  1.000E-06  1.000E-06  1.000E-06
       1.000E-06  1.000E-06  1.000E-06  1.000E-06  1.000E-06  1.000E-06  1.000E-06  1.000E-06  1.000E-06  1.000E-06  1.000E-06
       1.000E-06  1.000E-06  1.000E-06  1.000E-06  1.000E-06  1.000E-06  1.000E-06  1.000E-06  1.000E-06  1.000E-06  1.000E-06
       1.000E-06  1.000E-06  1.000E-06  1.000E-06  1.000E-06  1.000E-06  1.000E-06  1.000E-06  1.000E-06  1.000E-06  1.000E-06
       1.000E-06  1.000E-06  1.000E-06  1.000E-06  1.000E-06  1.000E-06  1.000E-06  1.000E-06  1.000E-06  1.000E-06  1.000E-06
       1.000E-06  1.000E-06  1.000E-06  1.000E-06  1.000E-06  1.000E-06  1.000E-06  1.000E-06  1.000E-06  1.000E-06  1.000E-06
       1.000E-06  1.000E-06  1.000E-06  1.000E-06  1.000E-06  1.000E-06  1.000E-06  1.000E-06  1.000E-06  1.000E-06  1.000E-06
       1.000E-06  1.000E-06  1.000E-06  1.000E-06  1.000E-06  1.000E-06  1.000E-06  1.000E-06  1.000E-06  1.000E-06  1.000E-06
       1.000E-06  1.000E-06  1.000E-06  1.000E-06  1.000E-06  1.000E-06  1.000E-06  1.000E-06  1.000E-06  1.000E-06  1.000E-06
       1.000E-06  1.000E-06  1.000E-06  1.000E-06  1.000E-06  1.000E-06  1.000E-06  1.000E-06  1.000E-06  1.000E-06  1.000E-06
       1.000E-06  1.000E-06  1.000E-06  1.000E-06  1.000E-06  1.000E-06  1.000E-06  1.000E-06  1.000E-06  1.000E-06  1.000E-06
       1.000E-06  1.000E-06  1.000E-06  1.000E-06  1.000E-06  1.000E-06  1.000E-06  1.000E-06  1.000E-06  1.000E-06  1.000E-06
       1.000E-06  1.000E-06  1.000E-06  1.000E-06  1.000E-06  1.000E-06  1.000E-06  1.000E-06  1.000E-06  1.000E-06  1.000E-06
       1.000E-06  1.000E-06  1.000E-06  1.000E-06  1.000E-06  1.000E-06  1.000E-06  1.000E-06  1.000E-06  1.000E-06  1.000E-06
       1.000E-06  1.000E-06  1.000E-06  1.000E-06  1.000E-06  1.000E-06  1.000E-06  1.000E-06  1.000E-06  1.000E-06  1.000E-06
       1.000E-06  1.000E-06  1.000E-06  1.000E-06  1.000E-06  1.000E-06  1.000E-06  1.000E-06  1.000E-06  1.000E-06  1.000E-06
       1.000E-06  1.000E-06  1.000E-06  1.000E-06  1.000E-06  1.000E-06  1.000E-06  1.000E-06  1.000E-06  1.000E-06  1.000E-06
       1.000E-06  1.000E-06  1.000E-06  1.000E-06  1.000E-06  1.000E-06  1.000E-06  1.000E-06  1.000E-06  1.000E-06  1.000E-06
       1.000E-06  1.000E-06  1.000E-06  1.000E-06  1.000E-06  1.000E-06  1.000E-06  1.000E-06  1.000E-06  1.000E-06  1.000E-06
       1.000E-06  1.000E-06  1.000E-06  1.000E-06  1.000E-06  1.000E-06  1.000E-06  1.000E-06  1.000E-06  1.000E-06  1.000E-06
       1.000E-06  1.000E-06  1.000E-06  1.000E-06  1.000E-06  1.000E-06  1.000E-06  1.000E-06  1.000E-06  1.000E-06  1.000E-06
       1.000E-06  1.000E-06  1.000E-06  1.000E-06  1.000E-06  1.000E-06  1.000E-06  1.000E-06  1.000E-06  1.000E-06  1.000E-06
       1.000E-06  1.000E-06  1.000E-06  1.000E-06  1.000E-06  1.000E-06  1.000E-06  1.000E-06  1.000E-06  1.000E-06  1.000E-06
       1.000E-06  1.000E-06  1.000E-06  1.000E-06  1.000E-06  1.000E-06  1.000E-06  1.000E-06  1.000E-06  1.000E-06  1.000E-06
       1.000E-06  1.000E-06  1.000E-06  1.000E-06  1.000E-06  1.000E-06  1.000E-06  1.000E-06  1.000E-06  1.000E-06  1.000E-06
       1.000E-06  1.000E-06  1.000E-06  1.000E-06  1.000E-06  1.000E-06  1.000E-06  1.000E-06  1.000E-06  1.000E-06  1.000E-06
       1.000E-06  1.000E-06  1.000E-06  1.000E-06  1.000E-06  1.000E-06  1.000E-06  1.000E-06  1.000E-06  1.000E-06  1.000E-06
       1.000E-06  1.000E-06  1.000E-06  1.000E-06  1.000E-06  1.000E-06  1.000E-06  1.000E-06  1.000E-06  1.000E-06  1.000E-06
       1.000E-06  1.000E-06  1.000E-06  1.000E-06  1.000E-06  1.000E-06  1.000E-06  1.000E-06  1.000E-06  1.000E-06  1.000E-06
       1.000E-06  1.000E-06  1.000E-06  1.000E-06  1.000E-06  1.000E-06  1.000E-06  1.000E-06  1.000E-06  1.000E-06  1.000E-06
       1.000E-06  1.000E-06  1.000E-06  1.000E-06  1.000E-06  1.000E-06  1.000E-06  1.000E-06  1.000E-06  1.000E-06  1.000E-06
       1.000E-06  1.000E-06  1.000E-06  1.000E-06  1.000E-06  1.000E-06  1.000E-06  1.000E-06  1.000E-06  1.000E-06  1.000E-06
       1.000E-06  1.000E-06  1.000E-06  1.000E-06  1.000E-06  1.000E-06  1.000E-06  1.000E-06  1.000E-06  1.000E-06  1.000E-06
       1.000E-06  1.000E-06  1.000E-06  1.000E-06  1.000E-06  1.000E-06  1.000E-06  1.000E-06  1.000E-06  1.000E-06  1.000E-06
       1.000E-06  1.000E-06  1.000E-06  1.000E-06  1.000E-06  1.000E-06  1.000E-06  1.000E-06  1.000E-06  1.000E-06  1.000E-06
       1.000E-06  1.000E-06  1.000E-06  1.000E-06  1.000E-06  1.000E-06  1.000E-06  1.000E-06  1.000E-06  1.000E-06  1.000E-06
       1.000E-06  1.000E-06  1.000E-06  1.000E-06  1.000E-06  1.000E-06  1.000E-06  1.000E-06  1.000E-06  1.000E-06  1.000E-06
       1.000E-06  1.000E-06  1.000E-06  1.000E-06  1.000E-06  1.000E-06  1.000E-06  1.000E-06  1.000E-06  1.000E-06  1.000E-06
       1.000E-06  1.000E-06  1.000E-06  1.000E-06  1.000E-06  1.000E-06  1.000E-06  1.000E-06  1.000E-06  1.000E-06  1.000E-06
       1.000E-06  1.000E-06  1.000E-06  1.000E-06  1.000E-06  1.000E-06  1.000E-06  1.000E-06  1.000E-06  1.000E-06  1.000E-06
       1.000E-06  1.000E-06  1.000E-06  1.000E-06  1.000E-06  1.000E-06  1.000E-06  1.000E-06  1.000E-06  1.000E-06  1.000E-06
       1.000E-06  1.000E-06  1.000E-06  1.000E-06  1.000E-06  1.000E-06  1.000E-06  1.000E-06  1.000E-06  1.000E-06  1.000E-06
       1.000E-06  1.000E-06  1.000E-06  1.000E-06  1.000E-06  1.000E-06  1.000E-06  1.000E-06  1.000E-06  1.000E-06  1.000E-06
       1.000E-06  1.000E-06  1.000E-06  1.000E-06  1.000E-06  1.000E-06  1.000E-06  1.000E-06  1.000E-06  1.000E-06  1.000E-06
       1.000E-06  1.000E-06  1.000E-06  1.000E-06  1.000E-06  1.000E-06  1.000E-06  1.000E-06  1.000E-06  1.000E-06  1.000E-06
       1.000E-06  1.000E-06  1.000E-06  1.000E-06  1.000E-06  1.000E-06  1.000E-06  1.000E-06  1.000E-06  1.000E-06  1.000E-06
       1.000E-06  1.000E-06  1.000E-06  1.000E-06  1.000E-06  1.000E-06  1.000E-06  1.000E-06  1.000E-06  1.000E-06  1.000E-06
       1.000E-06  1.000E-06  1.000E-06  1.000E-06  1.000E-06  1.000E-06  1.000E-06  1.000E-06  1.000E-06  1.000E-06  1.000E-06
       1.000E-06  1.000E-06  1.000E-06  1.000E-06  1.000E-06  1.000E-06  1.000E-06  1.000E-06  1.000E-06  1.000E-06  1.000E-06
       1.000E-06  1.000E-06  1.000E-06  1.000E-06  1.000E-06  1.000E-06  1.000E-06  1.000E-06  1.000E-06  1.000E-06  1.000E-06
       1.000E-06  1.000E-06  1.000E-06  1.000E-06  1.000E-06  1.000E-06  1.000E-06  1.000E-06  1.000E-06  1.000E-06  1.000E-06
       1.000E-06  1.000E-06  1.000E-06  1.000E-06  1.000E-06  1.000E-06  1.000E-06  1.000E-06  1.000E-06  1.000E-06  1.000E-06
       1.000E-06  1.000E-06  1.000E-06  1.000E-06  1.000E-06  1.000E-06  1.000E-06  1.000E-06  1.000E-06  1.000E-06  1.000E-06
       1.000E-06  1.000E-06  1.000E-06  1.000E-06  1.000E-06  1.000E-06  1.000E-06  1.000E-06  1.000E-06  1.000E-06  1.000E-06
       1.000E-06  1.000E-06  1.000E-06  1.000E-06  1.000E-06  1.000E-06  1.000E-06  1.000E-06  1.000E-06  1.000E-06  1.000E-06
       1.000E-06  1.000E-06  1.000E-06  1.000E-06  1.000E-06  1.000E-06  1.000E-06  1.000E-06  1.000E-06  1.000E-06  1.000E-06
       1.000E-06  1.000E-06  1.000E-06  1.000E-06  1.000E-06  1.000E-06  1.000E-06  1.000E-06  1.000E-06  1.000E-06  1.000E-06
       1.000E-06  1.000E-06  1.000E-06  1.000E-06  1.000E-06  1.000E-06  1.000E-06  1.000E-06  1.000E-06  1.000E-06  1.000E-06
       1.000E-06  1.000E-06  1.000E-06  1.000E-06  1.000E-06  1.000E-06  1.000E-06  1.000E-06  1.000E-06  1.000E-06  1.000E-06
       1.000E-06  1.000E-06  1.000E-06  1.000E-06  1.000E-06  1.000E-06  1.000E-06  1.000E-06  1.000E-06  1.000E-06  1.000E-06
       1.000E-06  1.000E-06  1.000E-06  1.000E-06  1.000E-06  1.000E-06  1.000E-06  1.000E-06  1.000E-06  1.000E-06  1.000E-06
       1.000E-06  1.000E-06  1.000E-06  1.000E-06  1.000E-06  1.000E-06  1.000E-06  1.000E-06  1.000E-06  1.000E-06  1.000E-06
       1.000E-06  1.000E-06  1.000E-06  1.000E-06  1.000E-06  1.000E-06  1.000E-06  1.000E-06  1.000E-06  1.000E-06  1.000E-06
       1.000E-06  1.000E-06  1.000E-06  1.000E-06  1.000E-06  1.000E-06  1.000E-06  1.000E-06  1.000E-06  1.000E-06  1.000E-06
       1.000E-06  1.000E-06  1.000E-06  1.000E-06  1.000E-06  1.000E-06  1.000E-06  1.000E-06  1.000E-06  1.000E-06  1.000E-06
       1.000E-06  1.000E-06  1.000E-06  1.000E-06  1.000E-06  1.000E-06  1.000E-06  1.000E-06  1.000E-06  1.000E-06  1.000E-06
       1.000E-06  1.000E-06  1.000E-06  1.000E-06  1.000E-06  1.000E-06  1.000E-06  1.000E-06  1.000E-06  1.000E-06  1.000E-06
       1.000E-06  1.000E-06  1.000E-06  1.000E-06  1.000E-06  1.000E-06  1.000E-06  1.000E-06  1.000E-06  1.000E-06  1.000E-06
       1.000E-06  1.000E-06  1.000E-06  1.000E-06  1.000E-06  1.000E-06  1.000E-06  1.000E-06  1.000E-06  1.000E-06  1.000E-06
       1.000E-06  1.000E-06  1.000E-06  1.000E-06  1.000E-06  1.000E-06  1.000E-06  1.000E-06  1.000E-06  1.000E-06  1.000E-06
       1.000E-06  1.000E-06  1.000E-06  1.000E-06  1.000E-06  1.000E-06  1.000E-06  1.000E-06  1.000E-06  1.000E-06  1.000E-06
       1.000E-06  1.000E-06  1.000E-06  1.000E-06  1.000E-06  1.000E-06  1.000E-06  1.000E-06  1.000E-06  1.000E-06  1.000E-06
       1.000E-06  1.000E-06  1.000E-06  1.000E-06  1.000E-06  1.000E-06  1.000E-06  1.000E-06  1.000E-06  1.000E-06  1.000E-06
       1.000E-06  1.000E-06  1.000E-06  1.000E-06  1.000E-06  1.000E-06  1.000E-06  1.000E-06  1.000E-06  1.000E-06  1.000E-06
       1.000E-06  1.000E-06  1.000E-06  1.000E-06  1.000E-06  1.000E-06  1.000E-06  1.000E-06  1.000E-06  1.000E-06  1.000E-06
       1.000E-06  1.000E-06  1.000E-06  1.000E-06  1.000E-06  1.000E-06  1.000E-06  1.000E-06  1.000E-06  1.000E-06  1.000E-06
       1.000E-06  1.000E-06  1.000E-06  1.000E-06  1.000E-06  1.000E-06  1.000E-06  1.000E-06  1.000E-06  1.000E-06  1.000E-06
       1.000E-06  1.000E-06  1.000E-06  1.000E-06  1.000E-06  1.000E-06  1.000E-06  1.000E-06  1.000E-06  1.000E-06  1.000E-06
       1.000E-06  1.000E-06  1.000E-06  1.000E-06  1.000E-06  1.000E-06  1.000E-06  1.000E-06  1.000E-06  1.000E-06  1.000E-06
       1.000E-06  1.000E-06  1.000E-06  1.000E-06  1.000E-06  1.000E-06  1.000E-06  1.000E-06  1.000E-06  1.000E-06  1.000E-06
       1.000E-06  1.000E-06  1.000E-06  1.000E-06  1.000E-06  1.000E-06  1.000E-06  1.000E-06  1.000E-06  1.000E-06  1.000E-06
       1.000E-06  1.000E-06  1.000E-06  1.000E-06  1.000E-06  1.000E-06  1.000E-06  1.000E-06  1.000E-06  1.000E-06  1.000E-06
       1.000E-06  1.000E-06  1.000E-06  1.000E-06  1.000E-06  1.000E-06  1.000E-06  1.000E-06  1.000E-06  1.000E-06  1.000E-06
       1.000E-06  1.000E-06  1.000E-06  1.000E-06  1.000E-06  1.000E-06  1.000E-06  1.000E-06  1.000E-06  1.000E-06  1.000E-06
       1.000E-06  1.000E-06  1.000E-06  1.000E-06  1.000E-06  1.000E-06  1.000E-06  1.000E-06  1.000E-06  1.000E-06  1.000E-06
       1.000E-06  1.000E-06  1.000E-06  1.000E-06  1.000E-06  1.000E-06  1.000E-06  1.000E-06  1.000E-06  1.000E-06  1.000E-06
       1.000E-06  1.000E-06  1.000E-06  1.000E-06  1.000E-06  1.000E-06  1.000E-06  1.000E-06  1.000E-06  1.000E-06  1.000E-06
       1.000E-06  1.000E-06  1.000E-06  1.000E-06  1.000E-06  1.000E-06  1.000E-06  1.000E-06  1.000E-06  1.000E-06  1.000E-06
       1.000E-06  1.000E-06  1.000E-06  1.000E-06  1.000E-06  1.000E-06  1.000E-06  1.000E-06  1.000E-06  1.000E-06  1.000E-06
       1.000E-06  1.000E-06  1.000E-06  1.000E-06  1.000E-06  1.000E-06  1.000E-06  1.000E-06  1.000E-06  1.000E-06  1.000E-06
       1.000E-06  1.000E-06  1.000E-06  1.000E-06  1.000E-06  1.000E-06  1.000E-06  1.000E-06  1.000E-06  1.000E-06  1.000E-06
       1.000E-06  1.000E-06  1.000E-06  1.000E-06  1.000E-06  1.000E-06  1.000E-06  1.000E-06  1.000E-06  1.000E-06  1.000E-06
       1.000E-06  1.000E-06  1.000E-06  1.000E-06  1.000E-06  1.000E-06  1.000E-06  1.000E-06  1.000E-06  1.000E-06  1.000E-06
       1.000E-06  1.000E-06  1.000E-06  1.000E-06  1.000E-06  1.000E-06  1.000E-06  1.000E-06  1.000E-06  1.000E-06  1.000E-06
       1.000E-06  1.000E-06  1.000E-06  1.000E-06  1.000E-06  1.000E-06  1.000E-06  1.000E-06  1.000E-06  1.000E-06  1.000E-06
       1.000E-06  1.000E-06  1.000E-06  1.000E-06  1.000E-06  1.000E-06  1.000E-06  1.000E-06  1.000E-06  1.000E-06  1.000E-06
       1.000E-06  1.000E-06  1.000E-06  1.000E-06  1.000E-06  1.000E-06  1.000E-06  1.000E-06  1.000E-06  1.000E-06  1.000E-06
       1.000E-06  1.000E-06  1.000E-06  1.000E-06  1.000E-06  1.000E-06  1.000E-06  1.000E-06  1.000E-06  1.000E-06  1.000E-06
       1.000E-06  1.000E-06  1.000E-06  1.000E-06  1.000E-06  1.000E-06  1.000E-06  1.000E-06  1.000E-06  1.000E-06  1.000E-06
       1.000E-06  1.000E-06  1.000E-06  1.000E-06  1.000E-06  1.000E-06  1.000E-06  1.000E-06  1.000E-06  1.000E-06  1.000E-06
       1.000E-06  1.000E-06  1.000E-06  1.000E-06  1.000E-06  1.000E-06  1.000E-06  1.000E-06  1.000E-06  1.000E-06  1.000E-06
       1.000E-06  1.000E-06  1.000E-06  1.000E-06  1.000E-06  1.000E-06  1.000E-06  1.000E-06  1.000E-06  1.000E-06  1.000E-06
       1.000E-06  1.000E-06  1.000E-06  1.000E-06  1.000E-06  1.000E-06  1.000E-06  1.000E-06  1.000E-06  1.000E-06  1.000E-06
       1.000E-06  1.000E-06  1.000E-06  1.000E-06  1.000E-06  1.000E-06  1.000E-06  1.000E-06  1.000E-06  1.000E-06  1.000E-06
       1.000E-06  1.000E-06  1.000E-06  1.000E-06  1.000E-06  1.000E-06  1.000E-06  1.000E-06  1.000E-06  1.000E-06  1.000E-06
       1.000E-06  1.000E-06  1.000E-06  1.000E-06  1.000E-06  1.000E-06  1.000E-06  1.000E-06  1.000E-06  1.000E-06  1.000E-06
       1.000E-06  1.000E-06  1.000E-06  1.000E-06  1.000E-06  1.000E-06  1.000E-06  1.000E-06  1.000E-06  1.000E-06  1.000E-06
       1.000E-06  1.000E-06  1.000E-06  1.000E-06  1.000E-06  1.000E-06  1.000E-06  1.000E-06  1.000E-06  1.000E-06  1.000E-06
       1.000E-06  1.000E-06  1.000E-06  1.000E-06  1.000E-06  1.000E-06  1.000E-06  1.000E-06  1.000E-06  1.000E-06  1.000E-06
       1.000E-06  1.000E-06  1.000E-06  1.000E-06  1.000E-06  1.000E-06  1.000E-06  1.000E-06  1.000E-06  1.000E-06  1.000E-06
       1.000E-06  1.000E-06  1.000E-06  1.000E-06  1.000E-06  1.000E-06  1.000E-06  1.000E-06  1.000E-06  1.000E-06  1.000E-06
       1.000E-06  1.000E-06  1.000E-06  1.000E-06  1.000E-06  1.000E-06  1.000E-06  1.000E-06  1.000E-06  1.000E-06  1.000E-06
       1.000E-06  1.000E-06  1.000E-06  1.000E-06  1.000E-06  1.000E-06  1.000E-06  1.000E-06  1.000E-06  1.000E-06  1.000E-06
       1.000E-06  1.000E-06  1.000E-06  1.000E-06  1.000E-06  1.000E-06  1.000E-06  1.000E-06  1.000E-06  1.000E-06  1.000E-06
       1.000E-06  1.000E-06  1.000E-06  1.000E-06  1.000E-06  1.000E-06  1.000E-06  1.000E-06  1.000E-06  1.000E-06  1.000E-06
       1.000E-06  1.000E-06  1.000E-06  1.000E-06  1.000E-06  1.000E-06  1.000E-06  1.000E-06  1.000E-06  1.000E-06  1.000E-06
       1.000E-06  1.000E-06  1.000E-06  1.000E-06  1.000E-06  1.000E-06  1.000E-06  1.000E-06  1.000E-06  1.000E-06  1.000E-06
       1.000E-06  1.000E-06  1.000E-06  1.000E-06  1.000E-06  1.000E-06  1.000E-06  1.000E-06  1.000E-06  1.000E-06  1.000E-06
       1.000E-06  1.000E-06  1.000E-06  1.000E-06  1.000E-06  1.000E-06  1.000E-06  1.000E-06  1.000E-06  1.000E-06  1.000E-06
       1.000E-06  1.000E-06  1.000E-06  1.000E-06  1.000E-06  1.000E-06  1.000E-06  1.000E-06  1.000E-06  1.000E-06  1.000E-06
       1.000E-06  1.000E-06  1.000E-06  1.000E-06  1.000E-06  1.000E-06  1.000E-06  1.000E-06  1.000E-06  1.000E-06  1.000E-06
       1.000E-06  1.000E-06  1.000E-06  1.000E-06  1.000E-06  1.000E-06  1.000E-06  1.000E-06  1.000E-06  1.000E-06  1.000E-06
       1.000E-06  1.000E-06  1.000E-06  1.000E-06  1.000E-06  1.000E-06  1.000E-06  1.000E-06  1.000E-06  1.000E-06  1.000E-06
       1.000E-06  1.000E-06  1.000E-06  1.000E-06  1.000E-06  1.000E-06  1.000E-06  1.000E-06  1.000E-06  1.000E-06  1.000E-06
       1.000E-06  1.000E-06  1.000E-06  1.000E-06  1.000E-06  1.000E-06  1.000E-06  1.000E-06  1.000E-06  1.000E-06  1.000E-06
       1.000E-06  1.000E-06  1.000E-06  1.000E-06  1.000E-06  1.000E-06  1.000E-06  1.000E-06  1.000E-06  1.000E-06  1.000E-06
       1.000E-06  1.000E-06  1.000E-06  1.000E-06  1.000E-06  1.000E-06  1.000E-06  1.000E-06  1.000E-06  1.000E-06  1.000E-06
       1.000E-06  1.000E-06  1.000E-06  1.000E-06  1.000E-06  1.000E-06  1.000E-06  1.000E-06  1.000E-06  1.000E-06  1.000E-06
       1.000E-06  1.000E-06  1.000E-06  1.000E-06  1.000E-06  1.000E-06  1.000E-06  1.000E-06  1.000E-06  1.000E-06  1.000E-06
       1.000E-06  1.000E-06  1.000E-06  1.000E-06  1.000E-06  1.000E-06  1.000E-06  1.000E-06  1.000E-06  1.000E-06  1.000E-06
       1.000E-06  1.000E-06  1.000E-06  1.000E-06  1.000E-06  1.000E-06  1.000E-06  1.000E-06  1.000E-06  1.000E-06  1.000E-06
       1.000E-06  1.000E-06  1.000E-06  1.000E-06  1.000E-06  1.000E-06  1.000E-06  1.000E-06  1.000E-06  1.000E-06  1.000E-06
       1.000E-06  1.000E-06  1.000E-06  1.000E-06  1.000E-06  1.000E-06  1.000E-06  1.000E-06  1.000E-06  1.000E-06  1.000E-06
       1.000E-06  1.000E-06  1.000E-06  1.000E-06  1.000E-06  1.000E-06  1.000E-06  1.000E-06  1.000E-06  1.000E-06  1.000E-06
       1.000E-06  1.000E-06  1.000E-06  1.000E-06  1.000E-06  1.000E-06  1.000E-06  1.000E-06  1.000E-06  1.000E-06  1.000E-06
       1.000E-06  1.000E-06  1.000E-06  1.000E-06  1.000E-06  1.000E-06  1.000E-06  1.000E-06  1.000E-06  1.000E-06  1.000E-06
       1.000E-06  1.000E-06  1.000E-06  1.000E-06  1.000E-06  1.000E-06  1.000E-06  1.000E-06  1.000E-06  1.000E-06  1.000E-06
       1.000E-06  1.000E-06  1.000E-06  1.000E-06  1.000E-06  1.000E-06  1.000E-06  1.000E-06  1.000E-06  1.000E-06  1.000E-06
       1.000E-06  1.000E-06  1.000E-06  1.000E-06  1.000E-06  1.000E-06  1.000E-06  1.000E-06  1.000E-06  1.000E-06  1.000E-06
       1.000E-06  1.000E-06  1.000E-06  1.000E-06  1.000E-06  1.000E-06  1.000E-06  1.000E-06  1.000E-06  1.000E-06  1.000E-06
       1.000E-06  1.000E-06  1.000E-06  1.000E-06  1.000E-06  1.000E-06  1.000E-06  1.000E-06  1.000E-06  1.000E-06  1.000E-06
       1.000E-06  1.000E-06  1.000E-06  1.000E-06  1.000E-06  1.000E-06  1.000E-06  1.000E-06  1.000E-06  1.000E-06  1.000E-06
       1.000E-06  1.000E-06  1.000E-06  1.000E-06  1.000E-06  1.000E-06  1.000E-06  1.000E-06  1.000E-06  1.000E-06  1.000E-06
       1.000E-06  1.000E-06  1.000E-06  1.000E-06  1.000E-06  1.000E-06  1.000E-06  1.000E-06  1.000E-06  1.000E-06  1.000E-06
       1.000E-06  1.000E-06  1.000E-06  1.000E-06  1.000E-06  1.000E-06  1.000E-06  1.000E-06  1.000E-06  1.000E-06  1.000E-06
       1.000E-06  1.000E-06  1.000E-06  1.000E-06  1.000E-06  1.000E-06  1.000E-06  1.000E-06  1.000E-06  1.000E-06  1.000E-06
       1.000E-06  1.000E-06  1.000E-06  1.000E-06  1.000E-06  1.000E-06  1.000E-06  1.000E-06  1.000E-06  1.000E-06  1.000E-06
       1.000E-06  1.000E-06  1.000E-06  1.000E-06  1.000E-06  1.000E-06  1.000E-06  1.000E-06  1.000E-06  1.000E-06  1.000E-06
       1.000E-06  1.000E-06  1.000E-06  1.000E-06  1.000E-06  1.000E-06  1.000E-06  1.000E-06  1.000E-06  1.000E-06  1.000E-06
       1.000E-06  1.000E-06  1.000E-06  1.000E-06  1.000E-06  1.000E-06  1.000E-06  1.000E-06  1.000E-06  1.000E-06  1.000E-06
       1.000E-06  1.000E-06  1.000E-06  1.000E-06  1.000E-06  1.000E-06  1.000E-06  1.000E-06  1.000E-06  1.000E-06  1.000E-06
       1.000E-06  1.000E-06  1.000E-06  1.000E-06  1.000E-06  1.000E-06  1.000E-06  1.000E-06  1.000E-06  1.000E-06  1.000E-06
       1.000E-06  1.000E-06  1.000E-06  1.000E-06  1.000E-06  1.000E-06  1.000E-06  1.000E-06  1.000E-06  1.000E-06  1.000E-06
       1.000E-06  1.000E-06  1.000E-06  1.000E-06  1.000E-06  1.000E-06  1.000E-06  1.000E-06  1.000E-06  1.000E-06  1.000E-06
       1.000E-06  1.000E-06  1.000E-06  1.000E-06  1.000E-06  1.000E-06  1.000E-06  1.000E-06  1.000E-06  1.000E-06  1.000E-06
       1.000E-06  1.000E-06  1.000E-06  1.000E-06  1.000E-06  1.000E-06  1.000E-06  1.000E-06  1.000E-06  1.000E-06  1.000E-06
       1.000E-06  1.000E-06  1.000E-06  1.000E-06  1.000E-06  1.000E-06  1.000E-06  1.000E-06  1.000E-06  1.000E-06  1.000E-06
       1.000E-06  1.000E-06  1.000E-06  1.000E-06  1.000E-06  1.000E-06  1.000E-06  1.000E-06  1.000E-06  1.000E-06  1.000E-06
       1.000E-06  1.000E-06  1.000E-06  1.000E-06  1.000E-06  1.000E-06  1.000E-06  1.000E-06  1.000E-06  1.000E-06  1.000E-06
       1.000E-06  1.000E-06  1.000E-06  1.000E-06  1.000E-06  1.000E-06  1.000E-06  1.000E-06  1.000E-06  1.000E-06  1.000E-06
       1.000E-06  1.000E-06  1.000E-06  1.000E-06  1.000E-06  1.000E-06  1.000E-06  1.000E-06  1.000E-06  1.000E-06  1.000E-06
       1.000E-06  1.000E-06  1.000E-06  1.000E-06  1.000E-06  1.000E-06  1.000E-06  1.000E-06  1.000E-06  1.000E-06  1.000E-06
       1.000E-06  1.000E-06  1.000E-06  1.000E-06  1.000E-06  1.000E-06  1.000E-06  1.000E-06  1.000E-06  1.000E-06  1.000E-06
       1.000E-06  1.000E-06  1.000E-06  1.000E-06  1.000E-06  1.000E-06  1.000E-06  1.000E-06  1.000E-06  1.000E-06  1.000E-06
       1.000E-06  1.000E-06  1.000E-06  1.000E-06  1.000E-06  1.000E-06  1.000E-06  1.000E-06  1.000E-06  1.000E-06  1.000E-06
       1.000E-06  1.000E-06  1.000E-06  1.000E-06  1.000E-06  1.000E-06  1.000E-06  1.000E-06  1.000E-06  1.000E-06  1.000E-06
       1.000E-06  1.000E-06  1.000E-06  1.000E-06  1.000E-06  1.000E-06  1.000E-06  1.000E-06  1.000E-06  1.000E-06  1.000E-06
       1.000E-06  1.000E-06  1.000E-06  1.000E-06  1.000E-06  1.000E-06  1.000E-06  1.000E-06  1.000E-06  1.000E-06  1.000E-06
       1.000E-06  1.000E-06  1.000E-06  1.000E-06  1.000E-06  1.000E-06  1.000E-06  1.000E-06  1.000E-06  1.000E-06  1.000E-06
       1.000E-06  1.000E-06  1.000E-06  1.000E-06  1.000E-06  1.000E-06  1.000E-06  1.000E-06  1.000E-06  1.000E-06  1.000E-06
       1.000E-06  1.000E-06  1.000E-06  1.000E-06  1.000E-06  1.000E-06  1.000E-06  1.000E-06  1.000E-06  1.000E-06  1.000E-06
       1.000E-06  1.000E-06  1.000E-06  1.000E-06  1.000E-06  1.000E-06  1.000E-06  1.000E-06  1.000E-06  1.000E-06  1.000E-06
       1.000E-06  1.000E-06  1.000E-06  1.000E-06  1.000E-06  1.000E-06  1.000E-06  1.000E-06  1.000E-06  1.000E-06  1.000E-06
       1.000E-06  1.000E-06  1.000E-06  1.000E-06  1.000E-06  1.000E-06  1.000E-06  1.000E-06  1.000E-06  1.000E-06  1.000E-06
       1.000E-06  1.000E-06  1.000E-06  1.000E-06  1.000E-06  1.000E-06  1.000E-06  1.000E-06  1.000E-06  1.000E-06  1.000E-06
       1.000E-06  1.000E-06  1.000E-06  1.000E-06  1.000E-06  1.000E-06  1.000E-06  1.000E-06  1.000E-06  1.000E-06  1.000E-06
       1.000E-06  1.000E-06  1.000E-06  1.000E-06  1.000E-06  1.000E-06  1.000E-06  1.000E-06  1.000E-06  1.000E-06  1.000E-06
       1.000E-06  1.000E-06  1.000E-06  1.000E-06  1.000E-06  1.000E-06  1.000E-06  1.000E-06  1.000E-06  1.000E-06  1.000E-06
       1.000E-06  1.000E-06  1.000E-06  1.000E-06  1.000E-06  1.000E-06  1.000E-06  1.000E-06  1.000E-06  1.000E-06  1.000E-06
       1.000E-06  1.000E-06  1.000E-06  1.000E-06  1.000E-06  1.000E-06  1.000E-06  1.000E-06  1.000E-06  1.000E-06  1.000E-06
       1.000E-06  1.000E-06  1.000E-06  1.000E-06  1.000E-06  1.000E-06  1.000E-06  1.000E-06  1.000E-06  1.000E-06  1.000E-06
       1.000E-06  1.000E-06  1.000E-06  1.000E-06  1.000E-06  1.000E-06  1.000E-06  1.000E-06  1.000E-06  1.000E-06  1.000E-06
       1.000E-06  1.000E-06  1.000E-06  1.000E-06  1.000E-06  1.000E-06  1.000E-06  1.000E-06  1.000E-06  1.000E-06  1.000E-06
       1.000E-06  1.000E-06  1.000E-06  1.000E-06  1.000E-06  1.000E-06  1.000E-06  1.000E-06  1.000E-06  1.000E-06  1.000E-06
       1.000E-06  1.000E-06  1.000E-06  1.000E-06  1.000E-06  1.000E-06  1.000E-06  1.000E-06  1.000E-06  1.000E-06  1.000E-06
       1.000E-06  1.000E-06  1.000E-06  1.000E-06  1.000E-06  1.000E-06  1.000E-06  1.000E-06  1.000E-06  1.000E-06  1.000E-06
       1.000E-06  1.000E-06  1.000E-06  1.000E-06  1.000E-06  1.000E-06  1.000E-06  1.000E-06  1.000E-06  1.000E-06  1.000E-06
       1.000E-06  1.000E-06  1.000E-06  1.000E-06  1.000E-06  1.000E-06  1.000E-06  1.000E-06  1.000E-06  1.000E-06  1.000E-06
       1.000E-06  1.000E-06  1.000E-06  1.000E-06  1.000E-06  1.000E-06  1.000E-06  1.000E-06  1.000E-06  1.000E-06  1.000E-06
       1.000E-06  1.000E-06  1.000E-06  1.000E-06  1.000E-06  1.000E-06  1.000E-06  1.000E-06  1.000E-06  1.000E-06  1.000E-06
       1.000E-06  1.000E-06  1.000E-06  1.000E-06  1.000E-06  1.000E-06  1.000E-06  1.000E-06  1.000E-06  1.000E-06  1.000E-06
       1.000E-06  1.000E-06  1.000E-06  1.000E-06  1.000E-06  1.000E-06  1.000E-06  1.000E-06  1.000E-06  1.000E-06  1.000E-06
       1.000E-06  1.000E-06  1.000E-06  1.000E-06  1.000E-06  1.000E-06  1.000E-06  1.000E-06  1.000E-06  1.000E-06  1.000E-06
       1.000E-06  1.000E-06  1.000E-06  1.000E-06  1.000E-06  1.000E-06  1.000E-06  1.000E-06  1.000E-06  1.000E-06  1.000E-06
       1.000E-06  1.000E-06  1.000E-06  1.000E-06  1.000E-06  1.000E-06  1.000E-06  1.000E-06  1.000E-06  1.000E-06  1.000E-06
       1.000E-06  1.000E-06  1.000E-06  1.000E-06  1.000E-06  1.000E-06  1.000E-06  1.000E-06  1.000E-06  1.000E-06  1.000E-06
       1.000E-06  1.000E-06  1.000E-06  1.000E-06  1.000E-06  1.000E-06  1.000E-06  1.000E-06  1.000E-06  1.000E-06  1.000E-06
       1.000E-06  1.000E-06  1.000E-06  1.000E-06  1.000E-06  1.000E-06  1.000E-06  1.000E-06  1.000E-06  1.000E-06  1.000E-06
       1.000E-06  1.000E-06  1.000E-06  1.000E-06  1.000E-06  1.000E-06  1.000E-06  1.000E-06  1.000E-06  1.000E-06  1.000E-06
       1.000E-06  1.000E-06  1.000E-06  1.000E-06  1.000E-06  1.000E-06  1.000E-06  1.000E-06  1.000E-06  1.000E-06  1.000E-06
       1.000E-06  1.000E-06  1.000E-06  1.000E-06  1.000E-06  1.000E-06  1.000E-06  1.000E-06  1.000E-06  1.000E-06  1.000E-06
       1.000E-06  1.000E-06  1.000E-06  1.000E-06  1.000E-06  1.000E-06  1.000E-06  1.000E-06  1.000E-06  1.000E-06  1.000E-06
       1.000E-06  1.000E-06  1.000E-06  1.000E-06  1.000E-06  1.000E-06  1.000E-06  1.000E-06  1.000E-06  1.000E-06  1.000E-06
       1.000E-06  1.000E-06  1.000E-06  1.000E-06  1.000E-06  1.000E-06  1.000E-06  1.000E-06  1.000E-06  1.000E-06  1.000E-06
       1.000E-06  1.000E-06  1.000E-06  1.000E-06  1.000E-06  1.000E-06  1.000E-06  1.000E-06  1.000E-06  1.000E-06  1.000E-06
       1.000E-06  1.000E-06  1.000E-06  1.000E-06  1.000E-06  1.000E-06  1.000E-06  1.000E-06  1.000E-06  1.000E-06  1.000E-06
       1.000E-06  1.000E-06  1.000E-06  1.000E-06  1.000E-06  1.000E-06  1.000E-06  1.000E-06  1.000E-06  1.000E-06  1.000E-06
       1.000E-06  1.000E-06  1.000E-06  1.000E-06  1.000E-06  1.000E-06  1.000E-06  1.000E-06  1.000E-06  1.000E-06  1.000E-06
       1.000E-06  1.000E-06  1.000E-06  1.000E-06  1.000E-06  1.000E-06  1.000E-06  1.000E-06  1.000E-06  1.000E-06  1.000E-06
       1.000E-06  1.000E-06  1.000E-06  1.000E-06  1.000E-06  1.000E-06  1.000E-06  1.000E-06  1.000E-06  1.000E-06  1.000E-06
       1.000E-06  1.000E-06  1.000E-06  1.000E-06  1.000E-06  1.000E-06  1.000E-06  1.000E-06  1.000E-06  1.000E-06  1.000E-06
       1.000E-06  1.000E-06  1.000E-06  1.000E-06  1.000E-06  1.000E-06  1.000E-06  1.000E-06  1.000E-06  1.000E-06  1.000E-06
       1.000E-06  1.000E-06  1.000E-06  1.000E-06  1.000E-06  1.000E-06  1.000E-06  1.000E-06  1.000E-06  1.000E-06  1.000E-06
       1.000E-06  1.000E-06  1.000E-06  1.000E-06  1.000E-06  1.000E-06  1.000E-06  1.000E-06  1.000E-06  1.000E-06  1.000E-06
       1.000E-06  1.000E-06  1.000E-06  1.000E-06  1.000E-06  1.000E-06  1.000E-06  1.000E-06  1.000E-06  1.000E-06  1.000E-06
       1.000E-06  1.000E-06  1.000E-06  1.000E-06  1.000E-06  1.000E-06  1.000E-06  1.000E-06  1.000E-06  1.000E-06  1.000E-06
       1.000E-06  1.000E-06  1.000E-06  1.000E-06  1.000E-06  1.000E-06  1.000E-06  1.000E-06  1.000E-06  1.000E-06  1.000E-06
       1.000E-06  1.000E-06  1.000E-06  1.000E-06  1.000E-06  1.000E-06  1.000E-06  1.000E-06  1.000E-06  1.000E-06  1.000E-06
       1.000E-06  1.000E-06  1.000E-06  1.000E-06  1.000E-06  1.000E-06  1.000E-06  1.000E-06  1.000E-06  1.000E-06  1.000E-06
       1.000E-06  1.000E-06  1.000E-06  1.000E-06  1.000E-06  1.000E-06  1.000E-06  1.000E-06  1.000E-06  1.000E-06  1.000E-06
       1.000E-06  1.000E-06  1.000E-06  1.000E-06  1.000E-06  1.000E-06  1.000E-06  1.000E-06  1.000E-06  1.000E-06  1.000E-06
       1.000E-06  1.000E-06  1.000E-06  1.000E-06  1.000E-06  1.000E-06  1.000E-06  1.000E-06  1.000E-06  1.000E-06  1.000E-06
       1.000E-06  1.000E-06  1.000E-06  1.000E-06  1.000E-06  1.000E-06  1.000E-06  1.000E-06  1.000E-06  1.000E-06  1.000E-06
       1.000E-06  1.000E-06  1.000E-06  1.000E-06  1.000E-06  1.000E-06  1.000E-06  1.000E-06  1.000E-06  1.000E-06  1.000E-06
       1.000E-06  1.000E-06  1.000E-06  1.000E-06  1.000E-06  1.000E-06  1.000E-06  1.000E-06  1.000E-06  1.000E-06  1.000E-06
       1.000E-06  1.000E-06  1.000E-06  1.000E-06  1.000E-06  1.000E-06  1.000E-06  1.000E-06  1.000E-06  1.000E-06  1.000E-06
       1.000E-06  1.000E-06  1.000E-06  1.000E-06  1.000E-06  1.000E-06  1.000E-06  1.000E-06  1.000E-06  1.000E-06  1.000E-06
       1.000E-06  1.000E-06  1.000E-06  1.000E-06  1.000E-06  1.000E-06  1.000E-06  1.000E-06  1.000E-06  1.000E-06  1.000E-06
       1.000E-06  1.000E-06  1.000E-06  1.000E-06  1.000E-06  1.000E-06  1.000E-06  1.000E-06  1.000E-06  1.000E-06  1.000E-06
       1.000E-06  1.000E-06  1.000E-06  1.000E-06  1.000E-06  1.000E-06  1.000E-06  1.000E-06  1.000E-06  1.000E-06  1.000E-06
       1.000E-06  1.000E-06  1.000E-06  1.000E-06  1.000E-06  1.000E-06  1.000E-06  1.000E-06  1.000E-06  1.000E-06  1.000E-06
       1.000E-06  1.000E-06  1.000E-06  1.000E-06  1.000E-06  1.000E-06  1.000E-06  1.000E-06  1.000E-06  1.000E-06  1.000E-06
       1.000E-06  1.000E-06  1.000E-06  1.000E-06  1.000E-06  1.000E-06  1.000E-06  1.000E-06  1.000E-06  1.000E-06  1.000E-06
       1.000E-06  1.000E-06  1.000E-06  1.000E-06  1.000E-06  1.000E-06  1.000E-06  1.000E-06  1.000E-06  1.000E-06  1.000E-06
       1.000E-06  1.000E-06  1.000E-06  1.000E-06  1.000E-06  1.000E-06  1.000E-06  1.000E-06  1.000E-06  1.000E-06  1.000E-06
       1.000E-06  1.000E-06  1.000E-06  1.000E-06  1.000E-06  1.000E-06  1.000E-06  1.000E-06  1.000E-06  1.000E-06  1.000E-06
       1.000E-06  1.000E-06  1.000E-06  1.000E-06  1.000E-06  1.000E-06  1.000E-06  1.000E-06  1.000E-06  1.000E-06  1.000E-06
       1.000E-06  1.000E-06  1.000E-06  1.000E-06  1.000E-06  1.000E-06  1.000E-06  1.000E-06  1.000E-06  1.000E-06  1.000E-06
       1.000E-06  1.000E-06  1.000E-06  1.000E-06  1.000E-06  1.000E-06  1.000E-06  1.000E-06  1.000E-06  1.000E-06  1.000E-06
       1.000E-06  1.000E-06  1.000E-06  1.000E-06  1.000E-06  1.000E-06  1.000E-06  1.000E-06  1.000E-06  1.000E-06  1.000E-06
       1.000E-06  1.000E-06  1.000E-06  1.000E-06  1.000E-06  1.000E-06  1.000E-06  1.000E-06  1.000E-06  1.000E-06  1.000E-06
       1.000E-06  1.000E-06  1.000E-06  1.000E-06  1.000E-06  1.000E-06  1.000E-06  1.000E-06  1.000E-06  1.000E-06  1.000E-06
       1.000E-06  1.000E-06  1.000E-06  1.000E-06  1.000E-06  1.000E-06  1.000E-06  1.000E-06  1.000E-06  1.000E-06  1.000E-06
       1.000E-06  1.000E-06  1.000E-06  1.000E-06  1.000E-06  1.000E-06  1.000E-06  1.000E-06  1.000E-06  1.000E-06  1.000E-06
       1.000E-06  1.000E-06  1.000E-06  1.000E-06  1.000E-06  1.000E-06  1.000E-06  1.000E-06  1.000E-06  1.000E-06  1.000E-06
       1.000E-06  1.000E-06  1.000E-06  1.000E-06  1.000E-06  1.000E-06  1.000E-06  1.000E-06  1.000E-06  1.000E-06  1.000E-06
       1.000E-06  1.000E-06  1.000E-06  1.000E-06  1.000E-06  1.000E-06  1.000E-06  1.000E-06  1.000E-06  1.000E-06  1.000E-06
       1.000E-06  1.000E-06  1.000E-06  1.000E-06  1.000E-06  1.000E-06  1.000E-06  1.000E-06  1.000E-06  1.000E-06  1.000E-06
       1.000E-06  1.000E-06  1.000E-06  1.000E-06  1.000E-06  1.000E-06  1.000E-06  1.000E-06  1.000E-06  1.000E-06  1.000E-06
       1.000E-06  1.000E-06  1.000E-06  1.000E-06  1.000E-06  1.000E-06  1.000E-06  1.000E-06  1.000E-06  1.000E-06  1.000E-06
       1.000E-06  1.000E-06  1.000E-06  1.000E-06  1.000E-06  1.000E-06  1.000E-06  1.000E-06  1.000E-06  1.000E-06  1.000E-06
       1.000E-06  1.000E-06  1.000E-06  1.000E-06  1.000E-06  1.000E-06  1.000E-06  1.000E-06  1.000E-06  1.000E-06  1.000E-06
       1.000E-06  1.000E-06  1.000E-06  1.000E-06  1.000E-06  1.000E-06  1.000E-06  1.000E-06  1.000E-06  1.000E-06  1.000E-06
       1.000E-06  1.000E-06  1.000E-06  1.000E-06  1.000E-06  1.000E-06  1.000E-06  1.000E-06  1.000E-06  1.000E-06  1.000E-06
       1.000E-06  1.000E-06  1.000E-06  1.000E-06  1.000E-06  1.000E-06  1.000E-06  1.000E-06  1.000E-06  1.000E-06  1.000E-06
       1.000E-06  1.000E-06  1.000E-06  1.000E-06  1.000E-06  1.000E-06  1.000E-06  1.000E-06  1.000E-06  1.000E-06  1.000E-06
       1.000E-06  1.000E-06  1.000E-06  1.000E-06  1.000E-06  1.000E-06  1.000E-06  1.000E-06  1.000E-06  1.000E-06  1.000E-06
       1.000E-06  1.000E-06  1.000E-06  1.000E-06  1.000E-06  1.000E-06  1.000E-06  1.000E-06  1.000E-06  1.000E-06  1.000E-06
       1.000E-06  1.000E-06  1.000E-06  1.000E-06  1.000E-06  1.000E-06  1.000E-06  1.000E-06  1.000E-06  1.000E-06  1.000E-06
       1.000E-06  1.000E-06  1.000E-06  1.000E-06  1.000E-06  1.000E-06  1.000E-06  1.000E-06  1.000E-06  1.000E-06  1.000E-06
       1.000E-06  1.000E-06  1.000E-06  1.000E-06  1.000E-06  1.000E-06  1.000E-06  1.000E-06  1.000E-06  1.000E-06  1.000E-06
       1.000E-06  1.000E-06  1.000E-06  1.000E-06  1.000E-06  1.000E-06  1.000E-06  1.000E-06  1.000E-06  1.000E-06  1.000E-06
       1.000E-06  1.000E-06  1.000E-06  1.000E-06  1.000E-06  1.000E-06  1.000E-06  1.000E-06  1.000E-06  1.000E-06  1.000E-06
       1.000E-06  1.000E-06  1.000E-06  1.000E-06  1.000E-06  1.000E-06  1.000E-06  1.000E-06  1.000E-06  1.000E-06  1.000E-06
       1.000E-06  1.000E-06  1.000E-06  1.000E-06  1.000E-06  1.000E-06  1.000E-06  1.000E-06  1.000E-06  1.000E-06  1.000E-06
       1.000E-06  1.000E-06  1.000E-06  1.000E-06  1.000E-06  1.000E-06  1.000E-06  1.000E-06  1.000E-06  1.000E-06  1.000E-06
       1.000E-06  1.000E-06  1.000E-06  1.000E-06  1.000E-06  1.000E-06  1.000E-06  1.000E-06  1.000E-06  1.000E-06  1.000E-06
       1.000E-06  1.000E-06  1.000E-06  1.000E-06  1.000E-06  1.000E-06  1.000E-06  1.000E-06  1.000E-06  1.000E-06  1.000E-06
       1.000E-06  1.000E-06  1.000E-06  1.000E-06  1.000E-06  1.000E-06  1.000E-06  1.000E-06  1.000E-06  1.000E-06  1.000E-06
       1.000E-06  1.000E-06  1.000E-06  1.000E-06  1.000E-06  1.000E-06  1.000E-06  1.000E-06  1.000E-06  1.000E-06  1.000E-06
       1.000E-06  1.000E-06  1.000E-06  1.000E-06  1.000E-06  1.000E-06  1.000E-06  1.000E-06  1.000E-06  1.000E-06  1.000E-06
       1.000E-06  1.000E-06  1.000E-06  1.000E-06  1.000E-06  1.000E-06  1.000E-06  1.000E-06  1.000E-06  1.000E-06  1.000E-06
       1.000E-06  1.000E-06  1.000E-06  1.000E-06  1.000E-06  1.000E-06  1.000E-06  1.000E-06  1.000E-06  1.000E-06  1.000E-06
       1.000E-06  1.000E-06  1.000E-06  1.000E-06  1.000E-06  1.000E-06  1.000E-06  1.000E-06  1.000E-06  1.000E-06  1.000E-06
       1.000E-06  1.000E-06  1.000E-06  1.000E-06  1.000E-06  1.000E-06  1.000E-06  1.000E-06  1.000E-06  1.000E-06  1.000E-06
       1.000E-06  1.000E-06  1.000E-06  1.000E-06  1.000E-06  1.000E-06  1.000E-06  1.000E-06  1.000E-06  1.000E-06  1.000E-06
       1.000E-06  1.000E-06  1.000E-06  1.000E-06  1.000E-06  1.000E-06  1.000E-06  1.000E-06  1.000E-06  1.000E-06  1.000E-06
       1.000E-06  1.000E-06  1.000E-06  1.000E-06  1.000E-06  1.000E-06  1.000E-06  1.000E-06  1.000E-06  1.000E-06  1.000E-06
       1.000E-06  1.000E-06  1.000E-06  1.000E-06  1.000E-06  1.000E-06  1.000E-06  1.000E-06  1.000E-06  1.000E-06  1.000E-06
       1.000E-06  1.000E-06  1.000E-06  1.000E-06  1.000E-06  1.000E-06  1.000E-06  1.000E-06  1.000E-06  1.000E-06  1.000E-06
       1.000E-06  1.000E-06  1.000E-06  1.000E-06  1.000E-06  1.000E-06  1.000E-06  1.000E-06  1.000E-06  1.000E-06  1.000E-06
       1.000E-06  1.000E-06  1.000E-06  1.000E-06  1.000E-06  1.000E-06  1.000E-06  1.000E-06  1.000E-06  1.000E-06  1.000E-06
       1.000E-06  1.000E-06  1.000E-06  1.000E-06  1.000E-06  1.000E-06  1.000E-06  1.000E-06  1.000E-06  1.000E-06  1.000E-06
       1.000E-06  1.000E-06  1.000E-06  1.000E-06  1.000E-06  1.000E-06  1.000E-06  1.000E-06  1.000E-06  1.000E-06  1.000E-06
       1.000E-06  1.000E-06  1.000E-06  1.000E-06  1.000E-06  1.000E-06  1.000E-06  1.000E-06  1.000E-06  1.000E-06  1.000E-06
       1.000E-06  1.000E-06  1.000E-06  1.000E-06  1.000E-06  1.000E-06  1.000E-06  1.000E-06  1.000E-06  1.000E-06  1.000E-06
       1.000E-06  1.000E-06  1.000E-06  1.000E-06  1.000E-06  1.000E-06  1.000E-06  1.000E-06  1.000E-06  1.000E-06  1.000E-06
       1.000E-06  1.000E-06  1.000E-06  1.000E-06  1.000E-06  1.000E-06  1.000E-06  1.000E-06  1.000E-06  1.000E-06  1.000E-06
       1.000E-06  1.000E-06  1.000E-06  1.000E-06  1.000E-06  1.000E-06  1.000E-06  1.000E-06  1.000E-06  1.000E-06  1.000E-06
       1.000E-06  1.000E-06  1.000E-06  1.000E-06  1.000E-06  1.000E-06  1.000E-06  1.000E-06  1.000E-06  1.000E-06  1.000E-06
       1.000E-06  1.000E-06  1.000E-06  1.000E-06  1.000E-06  1.000E-06  1.000E-06  1.000E-06  1.000E-06  1.000E-06  1.000E-06
       1.000E-06  1.000E-06  1.000E-06  1.000E-06  1.000E-06  1.000E-06  1.000E-06  1.000E-06  1.000E-06  1.000E-06  1.000E-06
       1.000E-06  1.000E-06  1.000E-06  1.000E-06  1.000E-06  1.000E-06  1.000E-06  1.000E-06  1.000E-06  1.000E-06  1.000E-06
       1.000E-06  1.000E-06  1.000E-06  1.000E-06  1.000E-06  1.000E-06  1.000E-06  1.000E-06  1.000E-06  1.000E-06  1.000E-06
       1.000E-06  1.000E-06  1.000E-06  1.000E-06  1.000E-06  1.000E-06  1.000E-06  1.000E-06  1.000E-06  1.000E-06  1.000E-06
       1.000E-06  1.000E-06  1.000E-06  1.000E-06  1.000E-06  1.000E-06  1.000E-06  1.000E-06  1.000E-06  1.000E-06  1.000E-06
       1.000E-06  1.000E-06  1.000E-06  1.000E-06  1.000E-06  1.000E-06  1.000E-06  1.000E-06  1.000E-06  1.000E-06  1.000E-06
       1.000E-06  1.000E-06  1.000E-06  1.000E-06  1.000E-06  1.000E-06  1.000E-06  1.000E-06  1.000E-06  1.000E-06  1.000E-06
       1.000E-06  1.000E-06  1.000E-06  1.000E-06  1.000E-06  1.000E-06  1.000E-06  1.000E-06  1.000E-06  1.000E-06  1.000E-06
       1.000E-06  1.000E-06  1.000E-06  1.000E-06  1.000E-06  1.000E-06  1.000E-06  1.000E-06  1.000E-06  1.000E-06

         SPECIFIC STORAGE FOR LAYER 3
       1.000E-06  1.000E-06  1.000E-06  1.000E-06  1.000E-06  1.000E-06  1.000E-06  1.000E-06  1.000E-06  1.000E-06  1.000E-06
       1.000E-06  1.000E-06  1.000E-06  1.000E-06  1.000E-06  1.000E-06  1.000E-06  1.000E-06  1.000E-06  1.000E-06  1.000E-06
       1.000E-06  1.000E-06  1.000E-06  1.000E-06  1.000E-06  1.000E-06  1.000E-06  1.000E-06  1.000E-06  1.000E-06  1.000E-06
       1.000E-06  1.000E-06  1.000E-06  1.000E-06  1.000E-06  1.000E-06  1.000E-06  1.000E-06  1.000E-06  1.000E-06  1.000E-06
       1.000E-06  1.000E-06  1.000E-06  1.000E-06  1.000E-06  1.000E-06  1.000E-06  1.000E-06  1.000E-06  1.000E-06  1.000E-06
       1.000E-06  1.000E-06  1.000E-06  1.000E-06  1.000E-06  1.000E-06  1.000E-06  1.000E-06  1.000E-06  1.000E-06  1.000E-06
       1.000E-06  1.000E-06  1.000E-06  1.000E-06  1.000E-06  1.000E-06  1.000E-06  1.000E-06  1.000E-06  1.000E-06  1.000E-06
       1.000E-06  1.000E-06  1.000E-06  1.000E-06  1.000E-06  1.000E-06  1.000E-06  1.000E-06  1.000E-06  1.000E-06  1.000E-06
       1.000E-06  1.000E-06  1.000E-06  1.000E-06  1.000E-06  1.000E-06  1.000E-06  1.000E-06  1.000E-06  1.000E-06  1.000E-06
       1.000E-06  1.000E-06  1.000E-06  1.000E-06  1.000E-06  1.000E-06  1.000E-06  1.000E-06  1.000E-06  1.000E-06  1.000E-06
       1.000E-06  1.000E-06  1.000E-06  1.000E-06  1.000E-06  1.000E-06  1.000E-06  1.000E-06  1.000E-06  1.000E-06  1.000E-06
       1.000E-06  1.000E-06  1.000E-06  1.000E-06  1.000E-06  1.000E-06  1.000E-06  1.000E-06  1.000E-06  1.000E-06  1.000E-06
       1.000E-06  1.000E-06  1.000E-06  1.000E-06  1.000E-06  1.000E-06  1.000E-06  1.000E-06  1.000E-06  1.000E-06  1.000E-06
       1.000E-06  1.000E-06  1.000E-06  1.000E-06  1.000E-06  1.000E-06  1.000E-06  1.000E-06  1.000E-06  1.000E-06  1.000E-06
       1.000E-06  1.000E-06  1.000E-06  1.000E-06  1.000E-06  1.000E-06  1.000E-06  1.000E-06  1.000E-06  1.000E-06  1.000E-06
       1.000E-06  1.000E-06  1.000E-06  1.000E-06  1.000E-06  1.000E-06  1.000E-06  1.000E-06  1.000E-06  1.000E-06  1.000E-06
       1.000E-06  1.000E-06  1.000E-06  1.000E-06  1.000E-06  1.000E-06  1.000E-06  1.000E-06  1.000E-06  1.000E-06  1.000E-06
       1.000E-06  1.000E-06  1.000E-06  1.000E-06  1.000E-06  1.000E-06  1.000E-06  1.000E-06  1.000E-06  1.000E-06  1.000E-06
       1.000E-06  1.000E-06  1.000E-06  1.000E-06  1.000E-06  1.000E-06  1.000E-06  1.000E-06  1.000E-06  1.000E-06  1.000E-06
       1.000E-06  1.000E-06  1.000E-06  1.000E-06  1.000E-06  1.000E-06  1.000E-06  1.000E-06  1.000E-06  1.000E-06  1.000E-06
       1.000E-06  1.000E-06  1.000E-06  1.000E-06  1.000E-06  1.000E-06  1.000E-06  1.000E-06  1.000E-06  1.000E-06  1.000E-06
       1.000E-06  1.000E-06  1.000E-06  1.000E-06  1.000E-06  1.000E-06  1.000E-06  1.000E-06  1.000E-06  1.000E-06  1.000E-06
       1.000E-06  1.000E-06  1.000E-06  1.000E-06  1.000E-06  1.000E-06  1.000E-06  1.000E-06  1.000E-06  1.000E-06  1.000E-06
       1.000E-06  1.000E-06  1.000E-06  1.000E-06  1.000E-06  1.000E-06  1.000E-06  1.000E-06  1.000E-06  1.000E-06  1.000E-06
       1.000E-06  1.000E-06  1.000E-06  1.000E-06  1.000E-06  1.000E-06  1.000E-06  1.000E-06  1.000E-06  1.000E-06  1.000E-06
       1.000E-06  1.000E-06  1.000E-06  1.000E-06  1.000E-06  1.000E-06  1.000E-06  1.000E-06  1.000E-06  1.000E-06  1.000E-06
       1.000E-06  1.000E-06  1.000E-06  1.000E-06  1.000E-06  1.000E-06  1.000E-06  1.000E-06  1.000E-06  1.000E-06  1.000E-06
       1.000E-06  1.000E-06  1.000E-06  1.000E-06  1.000E-06  1.000E-06  1.000E-06  1.000E-06  1.000E-06  1.000E-06  1.000E-06
       1.000E-06  1.000E-06  1.000E-06  1.000E-06  1.000E-06  1.000E-06  1.000E-06  1.000E-06  1.000E-06  1.000E-06  1.000E-06
       1.000E-06  1.000E-06  1.000E-06  1.000E-06  1.000E-06  1.000E-06  1.000E-06  1.000E-06  1.000E-06  1.000E-06  1.000E-06
       1.000E-06  1.000E-06  1.000E-06  1.000E-06  1.000E-06  1.000E-06  1.000E-06  1.000E-06  1.000E-06  1.000E-06  1.000E-06
       1.000E-06  1.000E-06  1.000E-06  1.000E-06  1.000E-06  1.000E-06  1.000E-06  1.000E-06  1.000E-06  1.000E-06  1.000E-06
       1.000E-06  1.000E-06  1.000E-06  1.000E-06  1.000E-06  1.000E-06  1.000E-06  1.000E-06  1.000E-06  1.000E-06  1.000E-06
       1.000E-06  1.000E-06  1.000E-06  1.000E-06  1.000E-06  1.000E-06  1.000E-06  1.000E-06  1.000E-06  1.000E-06  1.000E-06
       1.000E-06  1.000E-06  1.000E-06  1.000E-06  1.000E-06  1.000E-06  1.000E-06  1.000E-06  1.000E-06  1.000E-06  1.000E-06
       1.000E-06  1.000E-06  1.000E-06  1.000E-06  1.000E-06  1.000E-06  1.000E-06  1.000E-06  1.000E-06  1.000E-06  1.000E-06
       1.000E-06  1.000E-06  1.000E-06  1.000E-06  1.000E-06  1.000E-06  1.000E-06  1.000E-06  1.000E-06  1.000E-06  1.000E-06
       1.000E-06  1.000E-06  1.000E-06  1.000E-06  1.000E-06  1.000E-06  1.000E-06  1.000E-06  1.000E-06  1.000E-06  1.000E-06
       1.000E-06  1.000E-06  1.000E-06  1.000E-06  1.000E-06  1.000E-06  1.000E-06  1.000E-06  1.000E-06  1.000E-06  1.000E-06
       1.000E-06  1.000E-06  1.000E-06  1.000E-06  1.000E-06  1.000E-06  1.000E-06  1.000E-06  1.000E-06  1.000E-06  1.000E-06
       1.000E-06  1.000E-06  1.000E-06  1.000E-06  1.000E-06  1.000E-06  1.000E-06  1.000E-06  1.000E-06  1.000E-06  1.000E-06
       1.000E-06  1.000E-06  1.000E-06  1.000E-06  1.000E-06  1.000E-06  1.000E-06  1.000E-06  1.000E-06  1.000E-06  1.000E-06
       1.000E-06  1.000E-06  1.000E-06  1.000E-06  1.000E-06  1.000E-06  1.000E-06  1.000E-06  1.000E-06  1.000E-06  1.000E-06
       1.000E-06  1.000E-06  1.000E-06  1.000E-06  1.000E-06  1.000E-06  1.000E-06  1.000E-06  1.000E-06  1.000E-06  1.000E-06
       1.000E-06  1.000E-06  1.000E-06  1.000E-06  1.000E-06  1.000E-06  1.000E-06  1.000E-06  1.000E-06  1.000E-06  1.000E-06
       1.000E-06  1.000E-06  1.000E-06  1.000E-06  1.000E-06  1.000E-06  1.000E-06  1.000E-06  1.000E-06  1.000E-06  1.000E-06
       1.000E-06  1.000E-06  1.000E-06  1.000E-06  1.000E-06  1.000E-06  1.000E-06  1.000E-06  1.000E-06  1.000E-06  1.000E-06
       1.000E-06  1.000E-06  1.000E-06  1.000E-06  1.000E-06  1.000E-06  1.000E-06  1.000E-06  1.000E-06  1.000E-06  1.000E-06
       1.000E-06  1.000E-06  1.000E-06  1.000E-06  1.000E-06  1.000E-06  1.000E-06  1.000E-06  1.000E-06  1.000E-06  1.000E-06
       1.000E-06  1.000E-06  1.000E-06  1.000E-06  1.000E-06  1.000E-06  1.000E-06  1.000E-06  1.000E-06  1.000E-06  1.000E-06
       1.000E-06  1.000E-06  1.000E-06  1.000E-06  1.000E-06  1.000E-06  1.000E-06  1.000E-06  1.000E-06  1.000E-06  1.000E-06
       1.000E-06  1.000E-06  1.000E-06  1.000E-06  1.000E-06  1.000E-06  1.000E-06  1.000E-06  1.000E-06  1.000E-06  1.000E-06
       1.000E-06  1.000E-06  1.000E-06  1.000E-06  1.000E-06  1.000E-06  1.000E-06  1.000E-06  1.000E-06  1.000E-06  1.000E-06
       1.000E-06  1.000E-06  1.000E-06  1.000E-06  1.000E-06  1.000E-06  1.000E-06  1.000E-06  1.000E-06  1.000E-06  1.000E-06
       1.000E-06  1.000E-06  1.000E-06  1.000E-06  1.000E-06  1.000E-06  1.000E-06  1.000E-06  1.000E-06  1.000E-06  1.000E-06
       1.000E-06  1.000E-06  1.000E-06  1.000E-06  1.000E-06  1.000E-06  1.000E-06  1.000E-06  1.000E-06  1.000E-06  1.000E-06
       1.000E-06  1.000E-06  1.000E-06  1.000E-06  1.000E-06  1.000E-06  1.000E-06  1.000E-06  1.000E-06  1.000E-06  1.000E-06
       1.000E-06  1.000E-06  1.000E-06  1.000E-06  1.000E-06  1.000E-06  1.000E-06  1.000E-06  1.000E-06  1.000E-06  1.000E-06
       1.000E-06  1.000E-06  1.000E-06  1.000E-06  1.000E-06  1.000E-06  1.000E-06  1.000E-06  1.000E-06  1.000E-06  1.000E-06
       1.000E-06  1.000E-06  1.000E-06  1.000E-06  1.000E-06  1.000E-06  1.000E-06  1.000E-06  1.000E-06  1.000E-06  1.000E-06
       1.000E-06  1.000E-06  1.000E-06  1.000E-06  1.000E-06  1.000E-06  1.000E-06  1.000E-06  1.000E-06  1.000E-06  1.000E-06
       1.000E-06  1.000E-06  1.000E-06  1.000E-06  1.000E-06  1.000E-06  1.000E-06  1.000E-06  1.000E-06  1.000E-06  1.000E-06
       1.000E-06  1.000E-06  1.000E-06  1.000E-06  1.000E-06  1.000E-06  1.000E-06  1.000E-06  1.000E-06  1.000E-06  1.000E-06
       1.000E-06  1.000E-06  1.000E-06  1.000E-06  1.000E-06  1.000E-06  1.000E-06  1.000E-06  1.000E-06  1.000E-06  1.000E-06
       1.000E-06  1.000E-06  1.000E-06  1.000E-06  1.000E-06  1.000E-06  1.000E-06  1.000E-06  1.000E-06  1.000E-06  1.000E-06
       1.000E-06  1.000E-06  1.000E-06  1.000E-06  1.000E-06  1.000E-06  1.000E-06  1.000E-06  1.000E-06  1.000E-06  1.000E-06
       1.000E-06  1.000E-06  1.000E-06  1.000E-06  1.000E-06  1.000E-06  1.000E-06  1.000E-06  1.000E-06  1.000E-06  1.000E-06
       1.000E-06  1.000E-06  1.000E-06  1.000E-06  1.000E-06  1.000E-06  1.000E-06  1.000E-06  1.000E-06  1.000E-06  1.000E-06
       1.000E-06  1.000E-06  1.000E-06  1.000E-06  1.000E-06  1.000E-06  1.000E-06  1.000E-06  1.000E-06  1.000E-06  1.000E-06
       1.000E-06  1.000E-06  1.000E-06  1.000E-06  1.000E-06  1.000E-06  1.000E-06  1.000E-06  1.000E-06  1.000E-06  1.000E-06
       1.000E-06  1.000E-06  1.000E-06  1.000E-06  1.000E-06  1.000E-06  1.000E-06  1.000E-06  1.000E-06  1.000E-06  1.000E-06
       1.000E-06  1.000E-06  1.000E-06  1.000E-06  1.000E-06  1.000E-06  1.000E-06  1.000E-06  1.000E-06  1.000E-06  1.000E-06
       1.000E-06  1.000E-06  1.000E-06  1.000E-06  1.000E-06  1.000E-06  1.000E-06  1.000E-06  1.000E-06  1.000E-06  1.000E-06
       1.000E-06  1.000E-06  1.000E-06  1.000E-06  1.000E-06  1.000E-06  1.000E-06  1.000E-06  1.000E-06  1.000E-06  1.000E-06
       1.000E-06  1.000E-06  1.000E-06  1.000E-06  1.000E-06  1.000E-06  1.000E-06  1.000E-06  1.000E-06  1.000E-06  1.000E-06
       1.000E-06  1.000E-06  1.000E-06  1.000E-06  1.000E-06  1.000E-06  1.000E-06  1.000E-06  1.000E-06  1.000E-06  1.000E-06
       1.000E-06  1.000E-06  1.000E-06  1.000E-06  1.000E-06  1.000E-06  1.000E-06  1.000E-06  1.000E-06  1.000E-06  1.000E-06
       1.000E-06  1.000E-06  1.000E-06  1.000E-06  1.000E-06  1.000E-06  1.000E-06  1.000E-06  1.000E-06  1.000E-06  1.000E-06
       1.000E-06  1.000E-06  1.000E-06  1.000E-06  1.000E-06  1.000E-06  1.000E-06  1.000E-06  1.000E-06  1.000E-06  1.000E-06
       1.000E-06  1.000E-06  1.000E-06  1.000E-06  1.000E-06  1.000E-06  1.000E-06  1.000E-06  1.000E-06  1.000E-06  1.000E-06
       1.000E-06  1.000E-06  1.000E-06  1.000E-06  1.000E-06  1.000E-06  1.000E-06  1.000E-06  1.000E-06  1.000E-06  1.000E-06
       1.000E-06  1.000E-06  1.000E-06  1.000E-06  1.000E-06  1.000E-06  1.000E-06  1.000E-06  1.000E-06  1.000E-06  1.000E-06
       1.000E-06  1.000E-06  1.000E-06  1.000E-06  1.000E-06  1.000E-06  1.000E-06  1.000E-06  1.000E-06  1.000E-06  1.000E-06
       1.000E-06  1.000E-06  1.000E-06  1.000E-06  1.000E-06  1.000E-06  1.000E-06  1.000E-06  1.000E-06  1.000E-06  1.000E-06
       1.000E-06  1.000E-06  1.000E-06  1.000E-06  1.000E-06  1.000E-06  1.000E-06  1.000E-06  1.000E-06  1.000E-06  1.000E-06
       1.000E-06  1.000E-06  1.000E-06  1.000E-06  1.000E-06  1.000E-06  1.000E-06  1.000E-06  1.000E-06  1.000E-06  1.000E-06
       1.000E-06  1.000E-06  1.000E-06  1.000E-06  1.000E-06  1.000E-06  1.000E-06  1.000E-06  1.000E-06  1.000E-06  1.000E-06
       1.000E-06  1.000E-06  1.000E-06  1.000E-06  1.000E-06  1.000E-06  1.000E-06  1.000E-06  1.000E-06  1.000E-06  1.000E-06
       1.000E-06  1.000E-06  1.000E-06  1.000E-06  1.000E-06  1.000E-06  1.000E-06  1.000E-06  1.000E-06  1.000E-06  1.000E-06
       1.000E-06  1.000E-06  1.000E-06  1.000E-06  1.000E-06  1.000E-06  1.000E-06  1.000E-06  1.000E-06  1.000E-06  1.000E-06
       1.000E-06  1.000E-06  1.000E-06  1.000E-06  1.000E-06  1.000E-06  1.000E-06  1.000E-06  1.000E-06  1.000E-06  1.000E-06
       1.000E-06  1.000E-06  1.000E-06  1.000E-06  1.000E-06  1.000E-06  1.000E-06  1.000E-06  1.000E-06  1.000E-06  1.000E-06
       1.000E-06  1.000E-06  1.000E-06  1.000E-06  1.000E-06  1.000E-06  1.000E-06  1.000E-06  1.000E-06  1.000E-06  1.000E-06
       1.000E-06  1.000E-06  1.000E-06  1.000E-06  1.000E-06  1.000E-06  1.000E-06  1.000E-06  1.000E-06  1.000E-06  1.000E-06
       1.000E-06  1.000E-06  1.000E-06  1.000E-06  1.000E-06  1.000E-06  1.000E-06  1.000E-06  1.000E-06  1.000E-06  1.000E-06
       1.000E-06  1.000E-06  1.000E-06  1.000E-06  1.000E-06  1.000E-06  1.000E-06  1.000E-06  1.000E-06  1.000E-06  1.000E-06
       1.000E-06  1.000E-06  1.000E-06  1.000E-06  1.000E-06  1.000E-06  1.000E-06  1.000E-06  1.000E-06  1.000E-06  1.000E-06
       1.000E-06  1.000E-06  1.000E-06  1.000E-06  1.000E-06  1.000E-06  1.000E-06  1.000E-06  1.000E-06  1.000E-06  1.000E-06
       1.000E-06  1.000E-06  1.000E-06  1.000E-06  1.000E-06  1.000E-06  1.000E-06  1.000E-06  1.000E-06  1.000E-06  1.000E-06
       1.000E-06  1.000E-06  1.000E-06  1.000E-06  1.000E-06  1.000E-06  1.000E-06  1.000E-06  1.000E-06  1.000E-06  1.000E-06
       1.000E-06  1.000E-06  1.000E-06  1.000E-06  1.000E-06  1.000E-06  1.000E-06  1.000E-06  1.000E-06  1.000E-06  1.000E-06
       1.000E-06  1.000E-06  1.000E-06  1.000E-06  1.000E-06  1.000E-06  1.000E-06  1.000E-06  1.000E-06  1.000E-06  1.000E-06
       1.000E-06  1.000E-06  1.000E-06  1.000E-06  1.000E-06  1.000E-06  1.000E-06  1.000E-06  1.000E-06  1.000E-06  1.000E-06
       1.000E-06  1.000E-06  1.000E-06  1.000E-06  1.000E-06  1.000E-06  1.000E-06  1.000E-06  1.000E-06  1.000E-06  1.000E-06
       1.000E-06  1.000E-06  1.000E-06  1.000E-06  1.000E-06  1.000E-06  1.000E-06  1.000E-06  1.000E-06  1.000E-06  1.000E-06
       1.000E-06  1.000E-06  1.000E-06  1.000E-06  1.000E-06  1.000E-06  1.000E-06  1.000E-06  1.000E-06  1.000E-06  1.000E-06
       1.000E-06  1.000E-06  1.000E-06  1.000E-06  1.000E-06  1.000E-06  1.000E-06  1.000E-06  1.000E-06  1.000E-06  1.000E-06
       1.000E-06  1.000E-06  1.000E-06  1.000E-06  1.000E-06  1.000E-06  1.000E-06  1.000E-06  1.000E-06  1.000E-06  1.000E-06
       1.000E-06  1.000E-06  1.000E-06  1.000E-06  1.000E-06  1.000E-06  1.000E-06  1.000E-06  1.000E-06  1.000E-06  1.000E-06
       1.000E-06  1.000E-06  1.000E-06  1.000E-06  1.000E-06  1.000E-06  1.000E-06  1.000E-06  1.000E-06  1.000E-06  1.000E-06
       1.000E-06  1.000E-06  1.000E-06  1.000E-06  1.000E-06  1.000E-06  1.000E-06  1.000E-06  1.000E-06  1.000E-06  1.000E-06
       1.000E-06  1.000E-06  1.000E-06  1.000E-06  1.000E-06  1.000E-06  1.000E-06  1.000E-06  1.000E-06  1.000E-06  1.000E-06
       1.000E-06  1.000E-06  1.000E-06  1.000E-06  1.000E-06  1.000E-06  1.000E-06  1.000E-06  1.000E-06  1.000E-06  1.000E-06
       1.000E-06  1.000E-06  1.000E-06  1.000E-06  1.000E-06  1.000E-06  1.000E-06  1.000E-06  1.000E-06  1.000E-06  1.000E-06
       1.000E-06  1.000E-06  1.000E-06  1.000E-06  1.000E-06  1.000E-06  1.000E-06  1.000E-06  1.000E-06  1.000E-06  1.000E-06
       1.000E-06  1.000E-06  1.000E-06  1.000E-06  1.000E-06  1.000E-06  1.000E-06  1.000E-06  1.000E-06  1.000E-06  1.000E-06
       1.000E-06  1.000E-06  1.000E-06  1.000E-06  1.000E-06  1.000E-06  1.000E-06  1.000E-06  1.000E-06  1.000E-06  1.000E-06
       1.000E-06  1.000E-06  1.000E-06  1.000E-06  1.000E-06  1.000E-06  1.000E-06  1.000E-06  1.000E-06  1.000E-06  1.000E-06
       1.000E-06  1.000E-06  1.000E-06  1.000E-06  1.000E-06  1.000E-06  1.000E-06  1.000E-06  1.000E-06  1.000E-06  1.000E-06
       1.000E-06  1.000E-06  1.000E-06  1.000E-06  1.000E-06  1.000E-06  1.000E-06  1.000E-06  1.000E-06  1.000E-06  1.000E-06
       1.000E-06  1.000E-06  1.000E-06  1.000E-06  1.000E-06  1.000E-06  1.000E-06  1.000E-06  1.000E-06  1.000E-06  1.000E-06
       1.000E-06  1.000E-06  1.000E-06  1.000E-06  1.000E-06  1.000E-06  1.000E-06  1.000E-06  1.000E-06  1.000E-06  1.000E-06
       1.000E-06  1.000E-06  1.000E-06  1.000E-06  1.000E-06  1.000E-06  1.000E-06  1.000E-06  1.000E-06  1.000E-06  1.000E-06
       1.000E-06  1.000E-06  1.000E-06  1.000E-06  1.000E-06  1.000E-06  1.000E-06  1.000E-06  1.000E-06  1.000E-06  1.000E-06
       1.000E-06  1.000E-06  1.000E-06  1.000E-06  1.000E-06  1.000E-06  1.000E-06  1.000E-06  1.000E-06  1.000E-06  1.000E-06
       1.000E-06  1.000E-06  1.000E-06  1.000E-06  1.000E-06  1.000E-06  1.000E-06  1.000E-06  1.000E-06  1.000E-06  1.000E-06
       1.000E-06  1.000E-06  1.000E-06  1.000E-06  1.000E-06  1.000E-06  1.000E-06  1.000E-06  1.000E-06  1.000E-06  1.000E-06
       1.000E-06  1.000E-06  1.000E-06  1.000E-06  1.000E-06  1.000E-06  1.000E-06  1.000E-06  1.000E-06  1.000E-06  1.000E-06
       1.000E-06  1.000E-06  1.000E-06  1.000E-06  1.000E-06  1.000E-06  1.000E-06  1.000E-06  1.000E-06  1.000E-06  1.000E-06
       1.000E-06  1.000E-06  1.000E-06  1.000E-06  1.000E-06  1.000E-06  1.000E-06  1.000E-06  1.000E-06  1.000E-06  1.000E-06
       1.000E-06  1.000E-06  1.000E-06  1.000E-06  1.000E-06  1.000E-06  1.000E-06  1.000E-06  1.000E-06  1.000E-06  1.000E-06
       1.000E-06  1.000E-06  1.000E-06  1.000E-06  1.000E-06  1.000E-06  1.000E-06  1.000E-06  1.000E-06  1.000E-06  1.000E-06
       1.000E-06  1.000E-06  1.000E-06  1.000E-06  1.000E-06  1.000E-06  1.000E-06  1.000E-06  1.000E-06  1.000E-06  1.000E-06
       1.000E-06  1.000E-06  1.000E-06  1.000E-06  1.000E-06  1.000E-06  1.000E-06  1.000E-06  1.000E-06  1.000E-06  1.000E-06
       1.000E-06  1.000E-06  1.000E-06  1.000E-06  1.000E-06  1.000E-06  1.000E-06  1.000E-06  1.000E-06  1.000E-06  1.000E-06
       1.000E-06  1.000E-06  1.000E-06  1.000E-06  1.000E-06  1.000E-06  1.000E-06  1.000E-06  1.000E-06  1.000E-06  1.000E-06
       1.000E-06  1.000E-06  1.000E-06  1.000E-06  1.000E-06  1.000E-06  1.000E-06  1.000E-06  1.000E-06  1.000E-06  1.000E-06
       1.000E-06  1.000E-06  1.000E-06  1.000E-06  1.000E-06  1.000E-06  1.000E-06  1.000E-06  1.000E-06  1.000E-06  1.000E-06
       1.000E-06  1.000E-06  1.000E-06  1.000E-06  1.000E-06  1.000E-06  1.000E-06  1.000E-06  1.000E-06  1.000E-06  1.000E-06
       1.000E-06  1.000E-06  1.000E-06  1.000E-06  1.000E-06  1.000E-06  1.000E-06  1.000E-06  1.000E-06  1.000E-06  1.000E-06
       1.000E-06  1.000E-06  1.000E-06  1.000E-06  1.000E-06  1.000E-06  1.000E-06  1.000E-06  1.000E-06  1.000E-06  1.000E-06
       1.000E-06  1.000E-06  1.000E-06  1.000E-06  1.000E-06  1.000E-06  1.000E-06  1.000E-06  1.000E-06  1.000E-06  1.000E-06
       1.000E-06  1.000E-06  1.000E-06  1.000E-06  1.000E-06  1.000E-06  1.000E-06  1.000E-06  1.000E-06  1.000E-06  1.000E-06
       1.000E-06  1.000E-06  1.000E-06  1.000E-06  1.000E-06  1.000E-06  1.000E-06  1.000E-06  1.000E-06  1.000E-06  1.000E-06
       1.000E-06  1.000E-06  1.000E-06  1.000E-06  1.000E-06  1.000E-06  1.000E-06  1.000E-06  1.000E-06  1.000E-06  1.000E-06
       1.000E-06  1.000E-06  1.000E-06  1.000E-06  1.000E-06  1.000E-06  1.000E-06  1.000E-06  1.000E-06  1.000E-06  1.000E-06
       1.000E-06  1.000E-06  1.000E-06  1.000E-06  1.000E-06  1.000E-06  1.000E-06  1.000E-06  1.000E-06  1.000E-06  1.000E-06
       1.000E-06  1.000E-06  1.000E-06  1.000E-06  1.000E-06  1.000E-06  1.000E-06  1.000E-06  1.000E-06  1.000E-06  1.000E-06
       1.000E-06  1.000E-06  1.000E-06  1.000E-06  1.000E-06  1.000E-06  1.000E-06  1.000E-06  1.000E-06  1.000E-06  1.000E-06
       1.000E-06  1.000E-06  1.000E-06  1.000E-06  1.000E-06  1.000E-06  1.000E-06  1.000E-06  1.000E-06  1.000E-06  1.000E-06
       1.000E-06  1.000E-06  1.000E-06  1.000E-06  1.000E-06  1.000E-06  1.000E-06  1.000E-06  1.000E-06  1.000E-06  1.000E-06
       1.000E-06  1.000E-06  1.000E-06  1.000E-06  1.000E-06  1.000E-06  1.000E-06  1.000E-06  1.000E-06  1.000E-06  1.000E-06
       1.000E-06  1.000E-06  1.000E-06  1.000E-06  1.000E-06  1.000E-06  1.000E-06  1.000E-06  1.000E-06  1.000E-06  1.000E-06
       1.000E-06  1.000E-06  1.000E-06  1.000E-06  1.000E-06  1.000E-06  1.000E-06  1.000E-06  1.000E-06  1.000E-06  1.000E-06
       1.000E-06  1.000E-06  1.000E-06  1.000E-06  1.000E-06  1.000E-06  1.000E-06  1.000E-06  1.000E-06  1.000E-06  1.000E-06
       1.000E-06  1.000E-06  1.000E-06  1.000E-06  1.000E-06  1.000E-06  1.000E-06  1.000E-06  1.000E-06  1.000E-06  1.000E-06
       1.000E-06  1.000E-06  1.000E-06  1.000E-06  1.000E-06  1.000E-06  1.000E-06  1.000E-06  1.000E-06  1.000E-06  1.000E-06
       1.000E-06  1.000E-06  1.000E-06  1.000E-06  1.000E-06  1.000E-06  1.000E-06  1.000E-06  1.000E-06  1.000E-06  1.000E-06
       1.000E-06  1.000E-06  1.000E-06  1.000E-06  1.000E-06  1.000E-06  1.000E-06  1.000E-06  1.000E-06  1.000E-06  1.000E-06
       1.000E-06  1.000E-06  1.000E-06  1.000E-06  1.000E-06  1.000E-06  1.000E-06  1.000E-06  1.000E-06  1.000E-06  1.000E-06
       1.000E-06  1.000E-06  1.000E-06  1.000E-06  1.000E-06  1.000E-06  1.000E-06  1.000E-06  1.000E-06  1.000E-06  1.000E-06
       1.000E-06  1.000E-06  1.000E-06  1.000E-06  1.000E-06  1.000E-06  1.000E-06  1.000E-06  1.000E-06  1.000E-06  1.000E-06
       1.000E-06  1.000E-06  1.000E-06  1.000E-06  1.000E-06  1.000E-06  1.000E-06  1.000E-06  1.000E-06  1.000E-06  1.000E-06
       1.000E-06  1.000E-06  1.000E-06  1.000E-06  1.000E-06  1.000E-06  1.000E-06  1.000E-06  1.000E-06  1.000E-06  1.000E-06
       1.000E-06  1.000E-06  1.000E-06  1.000E-06  1.000E-06  1.000E-06  1.000E-06  1.000E-06  1.000E-06  1.000E-06  1.000E-06
       1.000E-06  1.000E-06  1.000E-06  1.000E-06  1.000E-06  1.000E-06  1.000E-06  1.000E-06  1.000E-06  1.000E-06  1.000E-06
       1.000E-06  1.000E-06  1.000E-06  1.000E-06  1.000E-06  1.000E-06  1.000E-06  1.000E-06  1.000E-06  1.000E-06  1.000E-06
       1.000E-06  1.000E-06  1.000E-06  1.000E-06  1.000E-06  1.000E-06  1.000E-06  1.000E-06  1.000E-06  1.000E-06  1.000E-06
       1.000E-06  1.000E-06  1.000E-06  1.000E-06  1.000E-06  1.000E-06  1.000E-06  1.000E-06  1.000E-06  1.000E-06  1.000E-06
       1.000E-06  1.000E-06  1.000E-06  1.000E-06  1.000E-06  1.000E-06  1.000E-06  1.000E-06  1.000E-06  1.000E-06  1.000E-06
       1.000E-06  1.000E-06  1.000E-06  1.000E-06  1.000E-06  1.000E-06  1.000E-06  1.000E-06  1.000E-06  1.000E-06  1.000E-06
       1.000E-06  1.000E-06  1.000E-06  1.000E-06  1.000E-06  1.000E-06  1.000E-06  1.000E-06  1.000E-06  1.000E-06  1.000E-06
       1.000E-06  1.000E-06  1.000E-06  1.000E-06  1.000E-06  1.000E-06  1.000E-06  1.000E-06  1.000E-06  1.000E-06  1.000E-06
       1.000E-06  1.000E-06  1.000E-06  1.000E-06  1.000E-06  1.000E-06  1.000E-06  1.000E-06  1.000E-06  1.000E-06  1.000E-06
       1.000E-06  1.000E-06  1.000E-06  1.000E-06  1.000E-06  1.000E-06  1.000E-06  1.000E-06  1.000E-06  1.000E-06  1.000E-06
       1.000E-06  1.000E-06  1.000E-06  1.000E-06  1.000E-06  1.000E-06  1.000E-06  1.000E-06  1.000E-06  1.000E-06  1.000E-06
       1.000E-06  1.000E-06  1.000E-06  1.000E-06  1.000E-06  1.000E-06  1.000E-06  1.000E-06  1.000E-06  1.000E-06  1.000E-06
       1.000E-06  1.000E-06  1.000E-06  1.000E-06  1.000E-06  1.000E-06  1.000E-06  1.000E-06  1.000E-06  1.000E-06  1.000E-06
       1.000E-06  1.000E-06  1.000E-06  1.000E-06  1.000E-06  1.000E-06  1.000E-06  1.000E-06  1.000E-06  1.000E-06  1.000E-06
       1.000E-06  1.000E-06  1.000E-06  1.000E-06  1.000E-06  1.000E-06  1.000E-06  1.000E-06  1.000E-06  1.000E-06  1.000E-06
       1.000E-06  1.000E-06  1.000E-06  1.000E-06  1.000E-06  1.000E-06  1.000E-06  1.000E-06  1.000E-06  1.000E-06  1.000E-06
       1.000E-06  1.000E-06  1.000E-06  1.000E-06  1.000E-06  1.000E-06  1.000E-06  1.000E-06  1.000E-06  1.000E-06  1.000E-06
       1.000E-06  1.000E-06  1.000E-06  1.000E-06  1.000E-06  1.000E-06  1.000E-06  1.000E-06  1.000E-06  1.000E-06  1.000E-06
       1.000E-06  1.000E-06  1.000E-06  1.000E-06  1.000E-06  1.000E-06  1.000E-06  1.000E-06  1.000E-06  1.000E-06  1.000E-06
       1.000E-06  1.000E-06  1.000E-06  1.000E-06  1.000E-06  1.000E-06  1.000E-06  1.000E-06  1.000E-06  1.000E-06  1.000E-06
       1.000E-06  1.000E-06  1.000E-06  1.000E-06  1.000E-06  1.000E-06  1.000E-06  1.000E-06  1.000E-06  1.000E-06  1.000E-06
       1.000E-06  1.000E-06  1.000E-06  1.000E-06  1.000E-06  1.000E-06  1.000E-06  1.000E-06  1.000E-06  1.000E-06  1.000E-06
       1.000E-06  1.000E-06  1.000E-06  1.000E-06  1.000E-06  1.000E-06  1.000E-06  1.000E-06  1.000E-06  1.000E-06  1.000E-06
       1.000E-06  1.000E-06  1.000E-06  1.000E-06  1.000E-06  1.000E-06  1.000E-06  1.000E-06  1.000E-06  1.000E-06  1.000E-06
       1.000E-06  1.000E-06  1.000E-06  1.000E-06  1.000E-06  1.000E-06  1.000E-06  1.000E-06  1.000E-06  1.000E-06  1.000E-06
       1.000E-06  1.000E-06  1.000E-06  1.000E-06  1.000E-06  1.000E-06  1.000E-06  1.000E-06  1.000E-06  1.000E-06  1.000E-06
       1.000E-06  1.000E-06  1.000E-06  1.000E-06  1.000E-06  1.000E-06  1.000E-06  1.000E-06  1.000E-06  1.000E-06  1.000E-06
       1.000E-06  1.000E-06  1.000E-06  1.000E-06  1.000E-06  1.000E-06  1.000E-06  1.000E-06  1.000E-06  1.000E-06  1.000E-06
       1.000E-06  1.000E-06  1.000E-06  1.000E-06  1.000E-06  1.000E-06  1.000E-06  1.000E-06  1.000E-06  1.000E-06  1.000E-06
       1.000E-06  1.000E-06  1.000E-06  1.000E-06  1.000E-06  1.000E-06  1.000E-06  1.000E-06  1.000E-06  1.000E-06  1.000E-06
       1.000E-06  1.000E-06  1.000E-06  1.000E-06  1.000E-06  1.000E-06  1.000E-06  1.000E-06  1.000E-06  1.000E-06  1.000E-06
       1.000E-06  1.000E-06  1.000E-06  1.000E-06  1.000E-06  1.000E-06  1.000E-06  1.000E-06  1.000E-06  1.000E-06  1.000E-06
       1.000E-06  1.000E-06  1.000E-06  1.000E-06  1.000E-06  1.000E-06  1.000E-06  1.000E-06  1.000E-06  1.000E-06  1.000E-06
       1.000E-06  1.000E-06  1.000E-06  1.000E-06  1.000E-06  1.000E-06  1.000E-06  1.000E-06  1.000E-06  1.000E-06  1.000E-06
       1.000E-06  1.000E-06  1.000E-06  1.000E-06  1.000E-06  1.000E-06  1.000E-06  1.000E-06  1.000E-06  1.000E-06  1.000E-06
       1.000E-06  1.000E-06  1.000E-06  1.000E-06  1.000E-06  1.000E-06  1.000E-06  1.000E-06  1.000E-06  1.000E-06  1.000E-06
       1.000E-06  1.000E-06  1.000E-06  1.000E-06  1.000E-06  1.000E-06  1.000E-06  1.000E-06  1.000E-06  1.000E-06  1.000E-06
       1.000E-06  1.000E-06  1.000E-06  1.000E-06  1.000E-06  1.000E-06  1.000E-06  1.000E-06  1.000E-06  1.000E-06  1.000E-06
       1.000E-06  1.000E-06  1.000E-06  1.000E-06  1.000E-06  1.000E-06  1.000E-06  1.000E-06  1.000E-06  1.000E-06  1.000E-06
       1.000E-06  1.000E-06  1.000E-06  1.000E-06  1.000E-06  1.000E-06  1.000E-06  1.000E-06  1.000E-06  1.000E-06  1.000E-06
       1.000E-06  1.000E-06  1.000E-06  1.000E-06  1.000E-06  1.000E-06  1.000E-06  1.000E-06  1.000E-06  1.000E-06  1.000E-06
       1.000E-06  1.000E-06  1.000E-06  1.000E-06  1.000E-06  1.000E-06  1.000E-06  1.000E-06  1.000E-06  1.000E-06  1.000E-06
       1.000E-06  1.000E-06  1.000E-06  1.000E-06  1.000E-06  1.000E-06  1.000E-06  1.000E-06  1.000E-06  1.000E-06  1.000E-06
       1.000E-06  1.000E-06  1.000E-06  1.000E-06  1.000E-06  1.000E-06  1.000E-06  1.000E-06  1.000E-06  1.000E-06  1.000E-06
       1.000E-06  1.000E-06  1.000E-06  1.000E-06  1.000E-06  1.000E-06  1.000E-06  1.000E-06  1.000E-06  1.000E-06  1.000E-06
       1.000E-06  1.000E-06  1.000E-06  1.000E-06  1.000E-06  1.000E-06  1.000E-06  1.000E-06  1.000E-06  1.000E-06  1.000E-06
       1.000E-06  1.000E-06  1.000E-06  1.000E-06  1.000E-06  1.000E-06  1.000E-06  1.000E-06  1.000E-06  1.000E-06  1.000E-06
       1.000E-06  1.000E-06  1.000E-06  1.000E-06  1.000E-06  1.000E-06  1.000E-06  1.000E-06  1.000E-06  1.000E-06  1.000E-06
       1.000E-06  1.000E-06  1.000E-06  1.000E-06  1.000E-06  1.000E-06  1.000E-06  1.000E-06  1.000E-06  1.000E-06  1.000E-06
       1.000E-06  1.000E-06  1.000E-06  1.000E-06  1.000E-06  1.000E-06  1.000E-06  1.000E-06  1.000E-06  1.000E-06  1.000E-06
       1.000E-06  1.000E-06  1.000E-06  1.000E-06  1.000E-06  1.000E-06  1.000E-06  1.000E-06  1.000E-06  1.000E-06  1.000E-06
       1.000E-06  1.000E-06  1.000E-06  1.000E-06  1.000E-06  1.000E-06  1.000E-06  1.000E-06  1.000E-06  1.000E-06  1.000E-06
       1.000E-06  1.000E-06  1.000E-06  1.000E-06  1.000E-06  1.000E-06  1.000E-06  1.000E-06  1.000E-06  1.000E-06  1.000E-06
       1.000E-06  1.000E-06  1.000E-06  1.000E-06  1.000E-06  1.000E-06  1.000E-06  1.000E-06  1.000E-06  1.000E-06  1.000E-06
       1.000E-06  1.000E-06  1.000E-06  1.000E-06  1.000E-06  1.000E-06  1.000E-06  1.000E-06  1.000E-06  1.000E-06  1.000E-06
       1.000E-06  1.000E-06  1.000E-06  1.000E-06  1.000E-06  1.000E-06  1.000E-06  1.000E-06  1.000E-06  1.000E-06  1.000E-06
       1.000E-06  1.000E-06  1.000E-06  1.000E-06  1.000E-06  1.000E-06  1.000E-06  1.000E-06  1.000E-06  1.000E-06  1.000E-06
       1.000E-06  1.000E-06  1.000E-06  1.000E-06  1.000E-06  1.000E-06  1.000E-06  1.000E-06  1.000E-06  1.000E-06  1.000E-06
       1.000E-06  1.000E-06  1.000E-06  1.000E-06  1.000E-06  1.000E-06  1.000E-06  1.000E-06  1.000E-06  1.000E-06  1.000E-06
       1.000E-06  1.000E-06  1.000E-06  1.000E-06  1.000E-06  1.000E-06  1.000E-06  1.000E-06  1.000E-06  1.000E-06  1.000E-06
       1.000E-06  1.000E-06  1.000E-06  1.000E-06  1.000E-06  1.000E-06  1.000E-06  1.000E-06  1.000E-06  1.000E-06  1.000E-06
       1.000E-06  1.000E-06  1.000E-06  1.000E-06  1.000E-06  1.000E-06  1.000E-06  1.000E-06  1.000E-06  1.000E-06  1.000E-06
       1.000E-06  1.000E-06  1.000E-06  1.000E-06  1.000E-06  1.000E-06  1.000E-06  1.000E-06  1.000E-06  1.000E-06  1.000E-06
       1.000E-06  1.000E-06  1.000E-06  1.000E-06  1.000E-06  1.000E-06  1.000E-06  1.000E-06  1.000E-06  1.000E-06  1.000E-06
       1.000E-06  1.000E-06  1.000E-06  1.000E-06  1.000E-06  1.000E-06  1.000E-06  1.000E-06  1.000E-06  1.000E-06  1.000E-06
       1.000E-06  1.000E-06  1.000E-06  1.000E-06  1.000E-06  1.000E-06  1.000E-06  1.000E-06  1.000E-06  1.000E-06  1.000E-06
       1.000E-06  1.000E-06  1.000E-06  1.000E-06  1.000E-06  1.000E-06  1.000E-06  1.000E-06  1.000E-06  1.000E-06  1.000E-06
       1.000E-06  1.000E-06  1.000E-06  1.000E-06  1.000E-06  1.000E-06  1.000E-06  1.000E-06  1.000E-06  1.000E-06  1.000E-06
       1.000E-06  1.000E-06  1.000E-06  1.000E-06  1.000E-06  1.000E-06  1.000E-06  1.000E-06  1.000E-06  1.000E-06  1.000E-06
       1.000E-06  1.000E-06  1.000E-06  1.000E-06  1.000E-06  1.000E-06  1.000E-06  1.000E-06  1.000E-06  1.000E-06  1.000E-06
       1.000E-06  1.000E-06  1.000E-06  1.000E-06  1.000E-06  1.000E-06  1.000E-06  1.000E-06  1.000E-06  1.000E-06  1.000E-06
       1.000E-06  1.000E-06  1.000E-06  1.000E-06  1.000E-06  1.000E-06  1.000E-06  1.000E-06  1.000E-06  1.000E-06  1.000E-06
       1.000E-06  1.000E-06  1.000E-06  1.000E-06  1.000E-06  1.000E-06  1.000E-06  1.000E-06  1.000E-06  1.000E-06  1.000E-06
       1.000E-06  1.000E-06  1.000E-06  1.000E-06  1.000E-06  1.000E-06  1.000E-06  1.000E-06  1.000E-06  1.000E-06  1.000E-06
       1.000E-06  1.000E-06  1.000E-06  1.000E-06  1.000E-06  1.000E-06  1.000E-06  1.000E-06  1.000E-06  1.000E-06  1.000E-06
       1.000E-06  1.000E-06  1.000E-06  1.000E-06  1.000E-06  1.000E-06  1.000E-06  1.000E-06  1.000E-06  1.000E-06  1.000E-06
       1.000E-06  1.000E-06  1.000E-06  1.000E-06  1.000E-06  1.000E-06  1.000E-06  1.000E-06  1.000E-06  1.000E-06  1.000E-06
       1.000E-06  1.000E-06  1.000E-06  1.000E-06  1.000E-06  1.000E-06  1.000E-06  1.000E-06  1.000E-06  1.000E-06  1.000E-06
       1.000E-06  1.000E-06  1.000E-06  1.000E-06  1.000E-06  1.000E-06  1.000E-06  1.000E-06  1.000E-06  1.000E-06  1.000E-06
       1.000E-06  1.000E-06  1.000E-06  1.000E-06  1.000E-06  1.000E-06  1.000E-06  1.000E-06  1.000E-06  1.000E-06  1.000E-06
       1.000E-06  1.000E-06  1.000E-06  1.000E-06  1.000E-06  1.000E-06  1.000E-06  1.000E-06  1.000E-06  1.000E-06  1.000E-06
       1.000E-06  1.000E-06  1.000E-06  1.000E-06  1.000E-06  1.000E-06  1.000E-06  1.000E-06  1.000E-06  1.000E-06  1.000E-06
       1.000E-06  1.000E-06  1.000E-06  1.000E-06  1.000E-06  1.000E-06  1.000E-06  1.000E-06  1.000E-06  1.000E-06  1.000E-06
       1.000E-06  1.000E-06  1.000E-06  1.000E-06  1.000E-06  1.000E-06  1.000E-06  1.000E-06  1.000E-06  1.000E-06  1.000E-06
       1.000E-06  1.000E-06  1.000E-06  1.000E-06  1.000E-06  1.000E-06  1.000E-06  1.000E-06  1.000E-06  1.000E-06  1.000E-06
       1.000E-06  1.000E-06  1.000E-06  1.000E-06  1.000E-06  1.000E-06  1.000E-06  1.000E-06  1.000E-06  1.000E-06  1.000E-06
       1.000E-06  1.000E-06  1.000E-06  1.000E-06  1.000E-06  1.000E-06  1.000E-06  1.000E-06  1.000E-06  1.000E-06  1.000E-06
       1.000E-06  1.000E-06  1.000E-06  1.000E-06  1.000E-06  1.000E-06  1.000E-06  1.000E-06  1.000E-06  1.000E-06  1.000E-06
       1.000E-06  1.000E-06  1.000E-06  1.000E-06  1.000E-06  1.000E-06  1.000E-06  1.000E-06  1.000E-06  1.000E-06  1.000E-06
       1.000E-06  1.000E-06  1.000E-06  1.000E-06  1.000E-06  1.000E-06  1.000E-06  1.000E-06  1.000E-06  1.000E-06  1.000E-06
       1.000E-06  1.000E-06  1.000E-06  1.000E-06  1.000E-06  1.000E-06  1.000E-06  1.000E-06  1.000E-06  1.000E-06  1.000E-06
       1.000E-06  1.000E-06  1.000E-06  1.000E-06  1.000E-06  1.000E-06  1.000E-06  1.000E-06  1.000E-06  1.000E-06  1.000E-06
       1.000E-06  1.000E-06  1.000E-06  1.000E-06  1.000E-06  1.000E-06  1.000E-06  1.000E-06  1.000E-06  1.000E-06  1.000E-06
       1.000E-06  1.000E-06  1.000E-06  1.000E-06  1.000E-06  1.000E-06  1.000E-06  1.000E-06  1.000E-06  1.000E-06  1.000E-06
       1.000E-06  1.000E-06  1.000E-06  1.000E-06  1.000E-06  1.000E-06  1.000E-06  1.000E-06  1.000E-06  1.000E-06  1.000E-06
       1.000E-06  1.000E-06  1.000E-06  1.000E-06  1.000E-06  1.000E-06  1.000E-06  1.000E-06  1.000E-06  1.000E-06  1.000E-06
       1.000E-06  1.000E-06  1.000E-06  1.000E-06  1.000E-06  1.000E-06  1.000E-06  1.000E-06  1.000E-06  1.000E-06  1.000E-06
       1.000E-06  1.000E-06  1.000E-06  1.000E-06  1.000E-06  1.000E-06  1.000E-06  1.000E-06  1.000E-06  1.000E-06  1.000E-06
       1.000E-06  1.000E-06  1.000E-06  1.000E-06  1.000E-06  1.000E-06  1.000E-06  1.000E-06  1.000E-06  1.000E-06  1.000E-06
       1.000E-06  1.000E-06  1.000E-06  1.000E-06  1.000E-06  1.000E-06  1.000E-06  1.000E-06  1.000E-06  1.000E-06  1.000E-06
       1.000E-06  1.000E-06  1.000E-06  1.000E-06  1.000E-06  1.000E-06  1.000E-06  1.000E-06  1.000E-06  1.000E-06  1.000E-06
       1.000E-06  1.000E-06  1.000E-06  1.000E-06  1.000E-06  1.000E-06  1.000E-06  1.000E-06  1.000E-06  1.000E-06  1.000E-06
       1.000E-06  1.000E-06  1.000E-06  1.000E-06  1.000E-06  1.000E-06  1.000E-06  1.000E-06  1.000E-06  1.000E-06  1.000E-06
       1.000E-06  1.000E-06  1.000E-06  1.000E-06  1.000E-06  1.000E-06  1.000E-06  1.000E-06  1.000E-06  1.000E-06  1.000E-06
       1.000E-06  1.000E-06  1.000E-06  1.000E-06  1.000E-06  1.000E-06  1.000E-06  1.000E-06  1.000E-06  1.000E-06  1.000E-06
       1.000E-06  1.000E-06  1.000E-06  1.000E-06  1.000E-06  1.000E-06  1.000E-06  1.000E-06  1.000E-06  1.000E-06  1.000E-06
       1.000E-06  1.000E-06  1.000E-06  1.000E-06  1.000E-06  1.000E-06  1.000E-06  1.000E-06  1.000E-06  1.000E-06  1.000E-06
       1.000E-06  1.000E-06  1.000E-06  1.000E-06  1.000E-06  1.000E-06  1.000E-06  1.000E-06  1.000E-06  1.000E-06  1.000E-06
       1.000E-06  1.000E-06  1.000E-06  1.000E-06  1.000E-06  1.000E-06  1.000E-06  1.000E-06  1.000E-06  1.000E-06  1.000E-06
       1.000E-06  1.000E-06  1.000E-06  1.000E-06  1.000E-06  1.000E-06  1.000E-06  1.000E-06  1.000E-06  1.000E-06  1.000E-06
       1.000E-06  1.000E-06  1.000E-06  1.000E-06  1.000E-06  1.000E-06  1.000E-06  1.000E-06  1.000E-06  1.000E-06  1.000E-06
       1.000E-06  1.000E-06  1.000E-06  1.000E-06  1.000E-06  1.000E-06  1.000E-06  1.000E-06  1.000E-06  1.000E-06  1.000E-06
       1.000E-06  1.000E-06  1.000E-06  1.000E-06  1.000E-06  1.000E-06  1.000E-06  1.000E-06  1.000E-06  1.000E-06  1.000E-06
       1.000E-06  1.000E-06  1.000E-06  1.000E-06  1.000E-06  1.000E-06  1.000E-06  1.000E-06  1.000E-06  1.000E-06  1.000E-06
       1.000E-06  1.000E-06  1.000E-06  1.000E-06  1.000E-06  1.000E-06  1.000E-06  1.000E-06  1.000E-06  1.000E-06  1.000E-06
       1.000E-06  1.000E-06  1.000E-06  1.000E-06  1.000E-06  1.000E-06  1.000E-06  1.000E-06  1.000E-06  1.000E-06  1.000E-06
       1.000E-06  1.000E-06  1.000E-06  1.000E-06  1.000E-06  1.000E-06  1.000E-06  1.000E-06  1.000E-06  1.000E-06  1.000E-06
       1.000E-06  1.000E-06  1.000E-06  1.000E-06  1.000E-06  1.000E-06  1.000E-06  1.000E-06  1.000E-06  1.000E-06  1.000E-06
       1.000E-06  1.000E-06  1.000E-06  1.000E-06  1.000E-06  1.000E-06  1.000E-06  1.000E-06  1.000E-06  1.000E-06  1.000E-06
       1.000E-06  1.000E-06  1.000E-06  1.000E-06  1.000E-06  1.000E-06  1.000E-06  1.000E-06  1.000E-06  1.000E-06  1.000E-06
       1.000E-06  1.000E-06  1.000E-06  1.000E-06  1.000E-06  1.000E-06  1.000E-06  1.000E-06  1.000E-06  1.000E-06  1.000E-06
       1.000E-06  1.000E-06  1.000E-06  1.000E-06  1.000E-06  1.000E-06  1.000E-06  1.000E-06  1.000E-06  1.000E-06  1.000E-06
       1.000E-06  1.000E-06  1.000E-06  1.000E-06  1.000E-06  1.000E-06  1.000E-06  1.000E-06  1.000E-06  1.000E-06  1.000E-06
       1.000E-06  1.000E-06  1.000E-06  1.000E-06  1.000E-06  1.000E-06  1.000E-06  1.000E-06  1.000E-06  1.000E-06  1.000E-06
       1.000E-06  1.000E-06  1.000E-06  1.000E-06  1.000E-06  1.000E-06  1.000E-06  1.000E-06  1.000E-06  1.000E-06  1.000E-06
       1.000E-06  1.000E-06  1.000E-06  1.000E-06  1.000E-06  1.000E-06  1.000E-06  1.000E-06  1.000E-06  1.000E-06  1.000E-06
       1.000E-06  1.000E-06  1.000E-06  1.000E-06  1.000E-06  1.000E-06  1.000E-06  1.000E-06  1.000E-06  1.000E-06  1.000E-06
       1.000E-06  1.000E-06  1.000E-06  1.000E-06  1.000E-06  1.000E-06  1.000E-06  1.000E-06  1.000E-06  1.000E-06  1.000E-06
       1.000E-06  1.000E-06  1.000E-06  1.000E-06  1.000E-06  1.000E-06  1.000E-06  1.000E-06  1.000E-06  1.000E-06  1.000E-06
       1.000E-06  1.000E-06  1.000E-06  1.000E-06  1.000E-06  1.000E-06  1.000E-06  1.000E-06  1.000E-06  1.000E-06  1.000E-06
       1.000E-06  1.000E-06  1.000E-06  1.000E-06  1.000E-06  1.000E-06  1.000E-06  1.000E-06  1.000E-06  1.000E-06  1.000E-06
       1.000E-06  1.000E-06  1.000E-06  1.000E-06  1.000E-06  1.000E-06  1.000E-06  1.000E-06  1.000E-06  1.000E-06  1.000E-06
       1.000E-06  1.000E-06  1.000E-06  1.000E-06  1.000E-06  1.000E-06  1.000E-06  1.000E-06  1.000E-06  1.000E-06  1.000E-06
       1.000E-06  1.000E-06  1.000E-06  1.000E-06  1.000E-06  1.000E-06  1.000E-06  1.000E-06  1.000E-06  1.000E-06  1.000E-06
       1.000E-06  1.000E-06  1.000E-06  1.000E-06  1.000E-06  1.000E-06  1.000E-06  1.000E-06  1.000E-06  1.000E-06  1.000E-06
       1.000E-06  1.000E-06  1.000E-06  1.000E-06  1.000E-06  1.000E-06  1.000E-06  1.000E-06  1.000E-06  1.000E-06  1.000E-06
       1.000E-06  1.000E-06  1.000E-06  1.000E-06  1.000E-06  1.000E-06  1.000E-06  1.000E-06  1.000E-06  1.000E-06  1.000E-06
       1.000E-06  1.000E-06  1.000E-06  1.000E-06  1.000E-06  1.000E-06  1.000E-06  1.000E-06  1.000E-06  1.000E-06  1.000E-06
       1.000E-06  1.000E-06  1.000E-06  1.000E-06  1.000E-06  1.000E-06  1.000E-06  1.000E-06  1.000E-06  1.000E-06  1.000E-06
       1.000E-06  1.000E-06  1.000E-06  1.000E-06  1.000E-06  1.000E-06  1.000E-06  1.000E-06  1.000E-06  1.000E-06  1.000E-06
       1.000E-06  1.000E-06  1.000E-06  1.000E-06  1.000E-06  1.000E-06  1.000E-06  1.000E-06  1.000E-06  1.000E-06  1.000E-06
       1.000E-06  1.000E-06  1.000E-06  1.000E-06  1.000E-06  1.000E-06  1.000E-06  1.000E-06  1.000E-06  1.000E-06  1.000E-06
       1.000E-06  1.000E-06  1.000E-06  1.000E-06  1.000E-06  1.000E-06  1.000E-06  1.000E-06  1.000E-06  1.000E-06  1.000E-06
       1.000E-06  1.000E-06  1.000E-06  1.000E-06  1.000E-06  1.000E-06  1.000E-06  1.000E-06  1.000E-06  1.000E-06  1.000E-06
       1.000E-06  1.000E-06  1.000E-06  1.000E-06  1.000E-06  1.000E-06  1.000E-06  1.000E-06  1.000E-06  1.000E-06  1.000E-06
       1.000E-06  1.000E-06  1.000E-06  1.000E-06  1.000E-06  1.000E-06  1.000E-06  1.000E-06  1.000E-06  1.000E-06  1.000E-06
       1.000E-06  1.000E-06  1.000E-06  1.000E-06  1.000E-06  1.000E-06  1.000E-06  1.000E-06  1.000E-06  1.000E-06  1.000E-06
       1.000E-06  1.000E-06  1.000E-06  1.000E-06  1.000E-06  1.000E-06  1.000E-06  1.000E-06  1.000E-06  1.000E-06  1.000E-06
       1.000E-06  1.000E-06  1.000E-06  1.000E-06  1.000E-06  1.000E-06  1.000E-06  1.000E-06  1.000E-06  1.000E-06  1.000E-06
       1.000E-06  1.000E-06  1.000E-06  1.000E-06  1.000E-06  1.000E-06  1.000E-06  1.000E-06  1.000E-06  1.000E-06  1.000E-06
       1.000E-06  1.000E-06  1.000E-06  1.000E-06  1.000E-06  1.000E-06  1.000E-06  1.000E-06  1.000E-06  1.000E-06  1.000E-06
       1.000E-06  1.000E-06  1.000E-06  1.000E-06  1.000E-06  1.000E-06  1.000E-06  1.000E-06  1.000E-06  1.000E-06  1.000E-06
       1.000E-06  1.000E-06  1.000E-06  1.000E-06  1.000E-06  1.000E-06  1.000E-06  1.000E-06  1.000E-06  1.000E-06  1.000E-06
       1.000E-06  1.000E-06  1.000E-06  1.000E-06  1.000E-06  1.000E-06  1.000E-06  1.000E-06  1.000E-06  1.000E-06  1.000E-06
       1.000E-06  1.000E-06  1.000E-06  1.000E-06  1.000E-06  1.000E-06  1.000E-06  1.000E-06  1.000E-06  1.000E-06  1.000E-06
       1.000E-06  1.000E-06  1.000E-06  1.000E-06  1.000E-06  1.000E-06  1.000E-06  1.000E-06  1.000E-06  1.000E-06  1.000E-06
       1.000E-06  1.000E-06  1.000E-06  1.000E-06  1.000E-06  1.000E-06  1.000E-06  1.000E-06  1.000E-06  1.000E-06  1.000E-06
       1.000E-06  1.000E-06  1.000E-06  1.000E-06  1.000E-06  1.000E-06  1.000E-06  1.000E-06  1.000E-06  1.000E-06  1.000E-06
       1.000E-06  1.000E-06  1.000E-06  1.000E-06  1.000E-06  1.000E-06  1.000E-06  1.000E-06  1.000E-06  1.000E-06  1.000E-06
       1.000E-06  1.000E-06  1.000E-06  1.000E-06  1.000E-06  1.000E-06  1.000E-06  1.000E-06  1.000E-06  1.000E-06  1.000E-06
       1.000E-06  1.000E-06  1.000E-06  1.000E-06  1.000E-06  1.000E-06  1.000E-06  1.000E-06  1.000E-06  1.000E-06  1.000E-06
       1.000E-06  1.000E-06  1.000E-06  1.000E-06  1.000E-06  1.000E-06  1.000E-06  1.000E-06  1.000E-06  1.000E-06  1.000E-06
       1.000E-06  1.000E-06  1.000E-06  1.000E-06  1.000E-06  1.000E-06  1.000E-06  1.000E-06  1.000E-06  1.000E-06  1.000E-06
       1.000E-06  1.000E-06  1.000E-06  1.000E-06  1.000E-06  1.000E-06  1.000E-06  1.000E-06  1.000E-06  1.000E-06  1.000E-06
       1.000E-06  1.000E-06  1.000E-06  1.000E-06  1.000E-06  1.000E-06  1.000E-06  1.000E-06  1.000E-06  1.000E-06  1.000E-06
       1.000E-06  1.000E-06  1.000E-06  1.000E-06  1.000E-06  1.000E-06  1.000E-06  1.000E-06  1.000E-06  1.000E-06  1.000E-06
       1.000E-06  1.000E-06  1.000E-06  1.000E-06  1.000E-06  1.000E-06  1.000E-06  1.000E-06  1.000E-06  1.000E-06  1.000E-06
       1.000E-06  1.000E-06  1.000E-06  1.000E-06  1.000E-06  1.000E-06  1.000E-06  1.000E-06  1.000E-06  1.000E-06  1.000E-06
       1.000E-06  1.000E-06  1.000E-06  1.000E-06  1.000E-06  1.000E-06  1.000E-06  1.000E-06  1.000E-06  1.000E-06  1.000E-06
       1.000E-06  1.000E-06  1.000E-06  1.000E-06  1.000E-06  1.000E-06  1.000E-06  1.000E-06  1.000E-06  1.000E-06  1.000E-06
       1.000E-06  1.000E-06  1.000E-06  1.000E-06  1.000E-06  1.000E-06  1.000E-06  1.000E-06  1.000E-06  1.000E-06  1.000E-06
       1.000E-06  1.000E-06  1.000E-06  1.000E-06  1.000E-06  1.000E-06  1.000E-06  1.000E-06  1.000E-06  1.000E-06  1.000E-06
       1.000E-06  1.000E-06  1.000E-06  1.000E-06  1.000E-06  1.000E-06  1.000E-06  1.000E-06  1.000E-06  1.000E-06  1.000E-06
       1.000E-06  1.000E-06  1.000E-06  1.000E-06  1.000E-06  1.000E-06  1.000E-06  1.000E-06  1.000E-06  1.000E-06  1.000E-06
       1.000E-06  1.000E-06  1.000E-06  1.000E-06  1.000E-06  1.000E-06  1.000E-06  1.000E-06  1.000E-06  1.000E-06  1.000E-06
       1.000E-06  1.000E-06  1.000E-06  1.000E-06  1.000E-06  1.000E-06  1.000E-06  1.000E-06  1.000E-06  1.000E-06  1.000E-06
       1.000E-06  1.000E-06  1.000E-06  1.000E-06  1.000E-06  1.000E-06  1.000E-06  1.000E-06  1.000E-06  1.000E-06  1.000E-06
       1.000E-06  1.000E-06  1.000E-06  1.000E-06  1.000E-06  1.000E-06  1.000E-06  1.000E-06  1.000E-06  1.000E-06  1.000E-06
       1.000E-06  1.000E-06  1.000E-06  1.000E-06  1.000E-06  1.000E-06  1.000E-06  1.000E-06  1.000E-06  1.000E-06

           SPECIFIC YIELD =  0.2000000     FOR LAYER 1

           SPECIFIC YIELD =  0.2000000     FOR LAYER 2

           SPECIFIC YIELD =  0.2000000     FOR LAYER 3
 END PROCESSING GRIDDATA

The observation utility is active for "EXPERIMENTAL"
 # File generated by Flopy version 3.3.5 on 11/09/2021 at 14:51:27.

Processing observation options:

Text output number of digits of precision set to: 10
The PRINT_INPUT option has been specified.


 OBSERVATIONS READ FROM FILE "experimental.obs"
 ----------------------------------------------------------------------------------------------------------------------------------------------------------------------------------------------------------------------------
 NAME                                     TYPE                                       TIME         LOCATION DATA                              OUTPUT FILENAME                                                                 
 ----------------------------------------------------------------------------------------------------------------------------------------------------------------------------------------------------------------------------
 B9-2                                     CONTINUOUS  HEAD                           ALL TIMES    "1 357  1 358"                             head.obs.csv                                                                    
 B10-2                                    CONTINUOUS  HEAD                           ALL TIMES    "1 1369  1 1370"                           head.obs.csv                                                                    
 B12-1                                    CONTINUOUS  HEAD                           ALL TIMES    "1 1585  1 1586"                           head.obs.csv                                                                    
 B16-1                                    CONTINUOUS  HEAD                           ALL TIMES    "1 2368  1 2369"                           head.obs.csv                                                                    
 B2-1                                     CONTINUOUS  HEAD                           ALL TIMES    "1 2103  1 2104"                           head.obs.csv                                                                    
 B22-1                                    CONTINUOUS  HEAD                           ALL TIMES    "1 1719  1 1720"                           head.obs.csv                                                                    
 B27                                      CONTINUOUS  HEAD                           ALL TIMES    "1 1595  1 1596"                           head.obs.csv                                                                    
 B29                                      CONTINUOUS  HEAD                           ALL TIMES    "1 1850  1 1851"                           head.obs.csv                                                                    
 KB1-1                                    CONTINUOUS  HEAD                           ALL TIMES    "1 2875  1 2876"                           head.obs.csv                                                                    
 KB4-3                                    CONTINUOUS  HEAD                           ALL TIMES    "1 1408  1 1409"                           head.obs.csv                                                                    
 NI1301-1                                 CONTINUOUS  HEAD                           ALL TIMES    "1 1741  1 1742"                           head.obs.csv                                                                    
 NI1302-1                                 CONTINUOUS  HEAD                           ALL TIMES    "1 1726  1 1727"                           head.obs.csv                                                                    
 NI1403-1                                 CONTINUOUS  HEAD                           ALL TIMES    "1 2918  1 2919"                           head.obs.csv                                                                    
 NI1405-1                                 CONTINUOUS  HEAD                           ALL TIMES    "1 2645  1 2646"                           head.obs.csv                                                                    
 NI1407-1                                 CONTINUOUS  HEAD                           ALL TIMES    "1 1710  1 1711"                           head.obs.csv                                                                    
 NI1408-1                                 CONTINUOUS  HEAD                           ALL TIMES    "1 1567  1 1568"                           head.obs.csv                                                                    
 NI1409-1                                 CONTINUOUS  HEAD                           ALL TIMES    "1 2002  1 2003"                           head.obs.csv                                                                    
 NI1410-1                                 CONTINUOUS  HEAD                           ALL TIMES    "1 2013  1 2014"                           head.obs.csv                                                                    
 NI1411-1                                 CONTINUOUS  HEAD                           ALL TIMES    "1 1879  1 1880"                           head.obs.csv                                                                    
 NI1412-1                                 CONTINUOUS  HEAD                           ALL TIMES    "1 2908  1 2909"                           head.obs.csv                                                                    
 NI1413-1                                 CONTINUOUS  HEAD                           ALL TIMES    "1 3047  1 3048"                           head.obs.csv                                                                    
 NI1501-1                                 CONTINUOUS  HEAD                           ALL TIMES    "1 1444  1 1445"                           head.obs.csv                                                                    
 NI1502-2                                 CONTINUOUS  HEAD                           ALL TIMES    "1 1212  1 1213"                           head.obs.csv                                                                    
 NI1503-2                                 CONTINUOUS  HEAD                           ALL TIMES    "1 1336  1 1337"                           head.obs.csv                                                                    
 NI1504-2                                 CONTINUOUS  HEAD                           ALL TIMES    "1 1470  1 1471"                           head.obs.csv                                                                    
 NI1505-1                                 CONTINUOUS  HEAD                           ALL TIMES    "1 1462  1 1463"                           head.obs.csv                                                                    
 NI1506-1                                 CONTINUOUS  HEAD                           ALL TIMES    "1 1582  1 1583"                           head.obs.csv                                                                    
 NI15-O1                                  CONTINUOUS  HEAD                           ALL TIMES    "1 3013  1 3014"                           head.obs.csv                                                                    
 NI15-O44                                 CONTINUOUS  HEAD                           ALL TIMES    "1 2707  1 2708"                           head.obs.csv                                                                    
 NI15-O46                                 CONTINUOUS  HEAD                           ALL TIMES    "1 1833  1 1834"                           head.obs.csv                                                                    
 NI15-O47                                 CONTINUOUS  HEAD                           ALL TIMES    "1 1957  1 1958"                           head.obs.csv                                                                    
 NI15-O48                                 CONTINUOUS  HEAD                           ALL TIMES    "1 963  1 964"                             head.obs.csv                                                                    
 NI1601-1                                 CONTINUOUS  HEAD                           ALL TIMES    "1 2729  1 2730"                           head.obs.csv                                                                    
 NI1602-1                                 CONTINUOUS  HEAD                           ALL TIMES    "1 2522  1 2523"                           head.obs.csv                                                                    
 NI1603-1                                 CONTINUOUS  HEAD                           ALL TIMES    "1 2442  1 2443"                           head.obs.csv                                                                    
 NI1605-1                                 CONTINUOUS  HEAD                           ALL TIMES    "1 2922  1 2923"                           head.obs.csv                                                                    
 NI1606-1                                 CONTINUOUS  HEAD                           ALL TIMES    "1 2262  1 2263"                           head.obs.csv                                                                    
 NI1607-1                                 CONTINUOUS  HEAD                           ALL TIMES    "1 3016  1 3017"                           head.obs.csv                                                                    
 NI1608-1                                 CONTINUOUS  HEAD                           ALL TIMES    "1 3129  1 3130"                           head.obs.csv                                                                    
 NI1609-2                                 CONTINUOUS  HEAD                           ALL TIMES    "1 3138  1 3139"                           head.obs.csv                                                                    
 NI1610-2                                 CONTINUOUS  HEAD                           ALL TIMES    "1 3136  1 3137"                           head.obs.csv                                                                    
 NI1611-1                                 CONTINUOUS  HEAD                           ALL TIMES    "1 3145  1 3146"                           head.obs.csv                                                                    
 NI1612-1                                 CONTINUOUS  HEAD                           ALL TIMES    "1 2856  1 2857"                           head.obs.csv                                                                    
 NI1613-1                                 CONTINUOUS  HEAD                           ALL TIMES    "1 2444  1 2445"                           head.obs.csv                                                                    
 NI1703-1                                 CONTINUOUS  HEAD                           ALL TIMES    "1 3019  1 3020"                           head.obs.csv                                                                    
 NI1704-1                                 CONTINUOUS  HEAD                           ALL TIMES    "1 1068  1 1069"                           head.obs.csv                                                                    
 NI1705-1                                 CONTINUOUS  HEAD                           ALL TIMES    "1 1279  1 1280"                           head.obs.csv                                                                    
 NI1712-1                                 CONTINUOUS  HEAD                           ALL TIMES    "1 3156  1 3157"                           head.obs.csv                                                                    
 NI1801-1                                 CONTINUOUS  HEAD                           ALL TIMES    "1 1158  1 1159"                           head.obs.csv                                                                    
 NI1802-1                                 CONTINUOUS  HEAD                           ALL TIMES    "1 1164  1 1165"                           head.obs.csv                                                                    
 NI1803-1                                 CONTINUOUS  HEAD                           ALL TIMES    "1 1274  1 1275"                           head.obs.csv                                                                    
 NI1804-1                                 CONTINUOUS  HEAD                           ALL TIMES    "1 1398  1 1399"                           head.obs.csv                                                                    
 B9-4                                     CONTINUOUS  HEAD                           ALL TIMES    "2 357  2 358"                             head.obs.csv                                                                    
 B10-4                                    CONTINUOUS  HEAD                           ALL TIMES    "2 1369  2 1370"                           head.obs.csv                                                                    
 B13-1                                    CONTINUOUS  HEAD                           ALL TIMES    "2 1744  2 1745"                           head.obs.csv                                                                    
 B14-1                                    CONTINUOUS  HEAD                           ALL TIMES    "2 2023  2 2024"                           head.obs.csv                                                                    
 B15-1                                    CONTINUOUS  HEAD                           ALL TIMES    "2 1610  2 1611"                           head.obs.csv                                                                    
 B20-1                                    CONTINUOUS  HEAD                           ALL TIMES    "2 1464  2 1465"                           head.obs.csv                                                                    
 B21-1                                    CONTINUOUS  HEAD                           ALL TIMES    "2 1728  2 1729"                           head.obs.csv                                                                    
 B2-2                                     CONTINUOUS  HEAD                           ALL TIMES    "2 2103  2 2104"                           head.obs.csv                                                                    
 B22-2                                    CONTINUOUS  HEAD                           ALL TIMES    "2 1719  2 1720"                           head.obs.csv                                                                    
 B26                                      CONTINUOUS  HEAD                           ALL TIMES    "2 1746  2 1747"                           head.obs.csv                                                                    
 B35                                      CONTINUOUS  HEAD                           ALL TIMES    "2 2749  2 2750"                           head.obs.csv                                                                    
 B36                                      CONTINUOUS  HEAD                           ALL TIMES    "2 2894  2 2895"                           head.obs.csv                                                                    
 B37                                      CONTINUOUS  HEAD                           ALL TIMES    "2 2909  2 2910"                           head.obs.csv                                                                    
 B8-1                                     CONTINUOUS  HEAD                           ALL TIMES    "2 2408  2 2409"                           head.obs.csv                                                                    
 KB4-4                                    CONTINUOUS  HEAD                           ALL TIMES    "2 1408  2 1409"                           head.obs.csv                                                                    
 NI1301-2                                 CONTINUOUS  HEAD                           ALL TIMES    "2 1741  2 1742"                           head.obs.csv                                                                    
 NI1302-2                                 CONTINUOUS  HEAD                           ALL TIMES    "2 1726  2 1727"                           head.obs.csv                                                                    
 NI1401-1                                 CONTINUOUS  HEAD                           ALL TIMES    "2 1870  2 1871"                           head.obs.csv                                                                    
 NI1402-1                                 CONTINUOUS  HEAD                           ALL TIMES    "2 1590  2 1591"                           head.obs.csv                                                                    
 NI1404-1                                 CONTINUOUS  HEAD                           ALL TIMES    "2 1736  2 1737"                           head.obs.csv                                                                    
 NI1407-2                                 CONTINUOUS  HEAD                           ALL TIMES    "2 1710  2 1711"                           head.obs.csv                                                                    
 NI1408-2                                 CONTINUOUS  HEAD                           ALL TIMES    "2 1567  2 1568"                           head.obs.csv                                                                    
 NI1409-2                                 CONTINUOUS  HEAD                           ALL TIMES    "2 2002  2 2003"                           head.obs.csv                                                                    
 NI1410-2                                 CONTINUOUS  HEAD                           ALL TIMES    "2 2013  2 2014"                           head.obs.csv                                                                    
 NI1411-2                                 CONTINUOUS  HEAD                           ALL TIMES    "2 1879  2 1880"                           head.obs.csv                                                                    
 NI1413-2                                 CONTINUOUS  HEAD                           ALL TIMES    "2 3047  2 3048"                           head.obs.csv                                                                    
 NI1501-2                                 CONTINUOUS  HEAD                           ALL TIMES    "2 1444  2 1445"                           head.obs.csv                                                                    
 NI1505-2                                 CONTINUOUS  HEAD                           ALL TIMES    "2 1462  2 1463"                           head.obs.csv                                                                    
 NI1506-2                                 CONTINUOUS  HEAD                           ALL TIMES    "2 1582  2 1583"                           head.obs.csv                                                                    
 NI1507-2                                 CONTINUOUS  HEAD                           ALL TIMES    "2 1322  2 1323"                           head.obs.csv                                                                    
 NI1601-2                                 CONTINUOUS  HEAD                           ALL TIMES    "2 2729  2 2730"                           head.obs.csv                                                                    
 NI1604-1                                 CONTINUOUS  HEAD                           ALL TIMES    "2 2903  2 2904"                           head.obs.csv                                                                    
 NI1606-2                                 CONTINUOUS  HEAD                           ALL TIMES    "2 2262  2 2263"                           head.obs.csv                                                                    
 NI1607-2                                 CONTINUOUS  HEAD                           ALL TIMES    "2 3016  2 3017"                           head.obs.csv                                                                    
 NI1608-2                                 CONTINUOUS  HEAD                           ALL TIMES    "2 3129  2 3130"                           head.obs.csv                                                                    
 NI1703-2                                 CONTINUOUS  HEAD                           ALL TIMES    "2 3019  2 3020"                           head.obs.csv                                                                    
 NI1706-1                                 CONTINUOUS  HEAD                           ALL TIMES    "2 1668  2 1669"                           head.obs.csv                                                                    
 NI1709-1                                 CONTINUOUS  HEAD                           ALL TIMES    "2 2773  2 2774"                           head.obs.csv                                                                    
 NI1801-3                                 CONTINUOUS  HEAD                           ALL TIMES    "2 1158  2 1159"                           head.obs.csv                                                                    
 NI1803-3                                 CONTINUOUS  HEAD                           ALL TIMES    "2 1274  2 1275"                           head.obs.csv                                                                    
 NI1804-3                                 CONTINUOUS  HEAD                           ALL TIMES    "2 1398  2 1399"                           head.obs.csv                                                                    
 B9-5                                     CONTINUOUS  HEAD                           ALL TIMES    "3 357  3 358"                             head.obs.csv                                                                    
 B10-5                                    CONTINUOUS  HEAD                           ALL TIMES    "3 1369  3 1370"                           head.obs.csv                                                                    
 B16-2                                    CONTINUOUS  HEAD                           ALL TIMES    "3 2368  3 2369"                           head.obs.csv                                                                    
 B19-4                                    CONTINUOUS  HEAD                           ALL TIMES    "3 2926  3 2927"                           head.obs.csv                                                                    
 B21-3                                    CONTINUOUS  HEAD                           ALL TIMES    "3 1728  3 1729"                           head.obs.csv                                                                    
 B22-4                                    CONTINUOUS  HEAD                           ALL TIMES    "3 1719  3 1720"                           head.obs.csv                                                                    
 B2-3                                     CONTINUOUS  HEAD                           ALL TIMES    "3 2103  3 2104"                           head.obs.csv                                                                    
 B30                                      CONTINUOUS  HEAD                           ALL TIMES    "3 1437  3 1438"                           head.obs.csv                                                                    
 B34                                      CONTINUOUS  HEAD                           ALL TIMES    "3 2740  3 2741"                           head.obs.csv                                                                    
 B4                                       CONTINUOUS  HEAD                           ALL TIMES    "3 1021  3 1022"                           head.obs.csv                                                                    
 B8-2                                     CONTINUOUS  HEAD                           ALL TIMES    "3 2408  3 2409"                           head.obs.csv                                                                    
 NI1301-3                                 CONTINUOUS  HEAD                           ALL TIMES    "3 1741  3 1742"                           head.obs.csv                                                                    
 NI1302-3                                 CONTINUOUS  HEAD                           ALL TIMES    "3 1726  3 1727"                           head.obs.csv                                                                    
 NI1401-2                                 CONTINUOUS  HEAD                           ALL TIMES    "3 1870  3 1871"                           head.obs.csv                                                                    
 NI1402-2                                 CONTINUOUS  HEAD                           ALL TIMES    "3 1590  3 1591"                           head.obs.csv                                                                    
 NI1403-2                                 CONTINUOUS  HEAD                           ALL TIMES    "3 2918  3 2919"                           head.obs.csv                                                                    
 NI1404-2                                 CONTINUOUS  HEAD                           ALL TIMES    "3 1736  3 1737"                           head.obs.csv                                                                    
 NI1405-2                                 CONTINUOUS  HEAD                           ALL TIMES    "3 2645  3 2646"                           head.obs.csv                                                                    
 NI1406-1                                 CONTINUOUS  HEAD                           ALL TIMES    "3 1723  3 1724"                           head.obs.csv                                                                    
 NI1407-3                                 CONTINUOUS  HEAD                           ALL TIMES    "3 1710  3 1711"                           head.obs.csv                                                                    
 NI1408-3                                 CONTINUOUS  HEAD                           ALL TIMES    "3 1567  3 1568"                           head.obs.csv                                                                    
 NI1409-3                                 CONTINUOUS  HEAD                           ALL TIMES    "3 2002  3 2003"                           head.obs.csv                                                                    
 NI1410-3                                 CONTINUOUS  HEAD                           ALL TIMES    "3 2013  3 2014"                           head.obs.csv                                                                    
 NI1411-3                                 CONTINUOUS  HEAD                           ALL TIMES    "3 1879  3 1880"                           head.obs.csv                                                                    
 NI1412-3                                 CONTINUOUS  HEAD                           ALL TIMES    "3 2908  3 2909"                           head.obs.csv                                                                    
 NI1413-3                                 CONTINUOUS  HEAD                           ALL TIMES    "3 3047  3 3048"                           head.obs.csv                                                                    
 NI1501-3                                 CONTINUOUS  HEAD                           ALL TIMES    "3 1444  3 1445"                           head.obs.csv                                                                    
 NI1502-3                                 CONTINUOUS  HEAD                           ALL TIMES    "3 1212  3 1213"                           head.obs.csv                                                                    
 NI1503-3                                 CONTINUOUS  HEAD                           ALL TIMES    "3 1336  3 1337"                           head.obs.csv                                                                    
 NI1504-3                                 CONTINUOUS  HEAD                           ALL TIMES    "3 1470  3 1471"                           head.obs.csv                                                                    
 NI1505-3                                 CONTINUOUS  HEAD                           ALL TIMES    "3 1462  3 1463"                           head.obs.csv                                                                    
 NI1506-3                                 CONTINUOUS  HEAD                           ALL TIMES    "3 1582  3 1583"                           head.obs.csv                                                                    
 NI1507-3                                 CONTINUOUS  HEAD                           ALL TIMES    "3 1322  3 1323"                           head.obs.csv                                                                    
 NI1601-3                                 CONTINUOUS  HEAD                           ALL TIMES    "3 2729  3 2730"                           head.obs.csv                                                                    
 NI1602-2                                 CONTINUOUS  HEAD                           ALL TIMES    "3 2522  3 2523"                           head.obs.csv                                                                    
 NI1603-2                                 CONTINUOUS  HEAD                           ALL TIMES    "3 2442  3 2443"                           head.obs.csv                                                                    
 NI1604-3                                 CONTINUOUS  HEAD                           ALL TIMES    "3 2903  3 2904"                           head.obs.csv                                                                    
 NI1605-3                                 CONTINUOUS  HEAD                           ALL TIMES    "3 2922  3 2923"                           head.obs.csv                                                                    
 NI1606-3                                 CONTINUOUS  HEAD                           ALL TIMES    "3 2262  3 2263"                           head.obs.csv                                                                    
 NI1607-3                                 CONTINUOUS  HEAD                           ALL TIMES    "3 3016  3 3017"                           head.obs.csv                                                                    
 NI1608-3                                 CONTINUOUS  HEAD                           ALL TIMES    "3 3129  3 3130"                           head.obs.csv                                                                    
 NI1609-3                                 CONTINUOUS  HEAD                           ALL TIMES    "3 3138  3 3139"                           head.obs.csv                                                                    
 NI1612-2                                 CONTINUOUS  HEAD                           ALL TIMES    "3 2856  3 2857"                           head.obs.csv                                                                    
 NI1701-1                                 CONTINUOUS  HEAD                           ALL TIMES    "3 2714  3 2715"                           head.obs.csv                                                                    
 NI1702-1                                 CONTINUOUS  HEAD                           ALL TIMES    "3 2611  3 2612"                           head.obs.csv                                                                    
 NI1704-2                                 CONTINUOUS  HEAD                           ALL TIMES    "3 1068  3 1069"                           head.obs.csv                                                                    
 NI1705-2                                 CONTINUOUS  HEAD                           ALL TIMES    "3 1279  3 1280"                           head.obs.csv                                                                    
 NI1706-2                                 CONTINUOUS  HEAD                           ALL TIMES    "3 1668  3 1669"                           head.obs.csv                                                                    
 NI1707-1                                 CONTINUOUS  HEAD                           ALL TIMES    "3 1526  3 1527"                           head.obs.csv                                                                    
 NI1708-1                                 CONTINUOUS  HEAD                           ALL TIMES    "3 3038  3 3039"                           head.obs.csv                                                                    
 NI1711-1                                 CONTINUOUS  HEAD                           ALL TIMES    "3 3168  3 3169"                           head.obs.csv                                                                    
 ----------------------------------------------------------------------------------------------------------------------------------------------------------------------------------------------------------------------------


    BINARY GRID INFORMATION WILL BE WRITTEN TO:
      UNIT NUMBER: 1018
      FILE NAME: C:\Users\nat12nho\Documents\Development\repos\hagfors_gwm\experimental\experimental.disv.grb

 OPENED C:\Users\nat12nho\Documents\Development\repos\hagfors_gwm\experimental\experimental.disv.grb
 FILE TYPE:DATA(BINARY)   UNIT 1018   STATUS:REPLACE             
 FORMAT:UNFORMATTED            ACCESS:STREAM              
 ACTION:READWRITE           

      THE LAST TIME STEP WILL BE PRINTED
      THE LAST TIME STEP WILL BE PRINTED
 # File generated by Flopy version 3.3.5 on 11/09/2021 at 14:51:26.

 PROCESSING OC OPTIONS

    BUDGET INFORMATION WILL BE WRITTEN TO:
      UNIT NUMBER: 1019
      FILE NAME: experimental.cbb

 OPENED experimental.cbb
 FILE TYPE:DATA(BINARY)   UNIT 1019   STATUS:REPLACE             
 FORMAT:UNFORMATTED            ACCESS:STREAM              
 ACTION:READWRITE           

    HEAD INFORMATION WILL BE WRITTEN TO:
      UNIT NUMBER: 1020
      FILE NAME: experimental.hds

 OPENED experimental.hds
 FILE TYPE:DATA(BINARY)   UNIT 1020   STATUS:REPLACE             
 FORMAT:UNFORMATTED            ACCESS:STREAM              
 ACTION:READWRITE           

 END OF OC OPTIONS

The observation utility is active for "SFR"
 # File generated by Flopy version 3.3.5 on 11/09/2021 at 14:51:27.

Processing observation options:

Text output number of digits of precision set to: 10
The PRINT_INPUT option has been specified.


 OBSERVATIONS READ FROM FILE "experimental_leakage.sfr.obs"
 ----------------------------------------------------------------------------------------------------------------------------------------------------------------------------------------------------------------------------
 NAME                                     TYPE                                       TIME         LOCATION DATA                              OUTPUT FILENAME                                                                 
 ----------------------------------------------------------------------------------------------------------------------------------------------------------------------------------------------------------------------------
 LEAK-1                                   CONTINUOUS  SFR                            ALL TIMES    "1"                                        sfr_leakage.obs.csv                                                             
 LEAK-2                                   CONTINUOUS  SFR                            ALL TIMES    "2"                                        sfr_leakage.obs.csv                                                             
 LEAK-3                                   CONTINUOUS  SFR                            ALL TIMES    "3"                                        sfr_leakage.obs.csv                                                             
 LEAK-4                                   CONTINUOUS  SFR                            ALL TIMES    "4"                                        sfr_leakage.obs.csv                                                             
 LEAK-5                                   CONTINUOUS  SFR                            ALL TIMES    "5"                                        sfr_leakage.obs.csv                                                             
 LEAK-6                                   CONTINUOUS  SFR                            ALL TIMES    "6"                                        sfr_leakage.obs.csv                                                             
 LEAK-7                                   CONTINUOUS  SFR                            ALL TIMES    "7"                                        sfr_leakage.obs.csv                                                             
 LEAK-8                                   CONTINUOUS  SFR                            ALL TIMES    "8"                                        sfr_leakage.obs.csv                                                             
 LEAK-9                                   CONTINUOUS  SFR                            ALL TIMES    "9"                                        sfr_leakage.obs.csv                                                             
 LEAK-10                                  CONTINUOUS  SFR                            ALL TIMES    "10"                                       sfr_leakage.obs.csv                                                             
 LEAK-11                                  CONTINUOUS  SFR                            ALL TIMES    "11"                                       sfr_leakage.obs.csv                                                             
 LEAK-12                                  CONTINUOUS  SFR                            ALL TIMES    "12"                                       sfr_leakage.obs.csv                                                             
 LEAK-13                                  CONTINUOUS  SFR                            ALL TIMES    "13"                                       sfr_leakage.obs.csv                                                             
 LEAK-14                                  CONTINUOUS  SFR                            ALL TIMES    "14"                                       sfr_leakage.obs.csv                                                             
 LEAK-15                                  CONTINUOUS  SFR                            ALL TIMES    "15"                                       sfr_leakage.obs.csv                                                             
 LEAK-16                                  CONTINUOUS  SFR                            ALL TIMES    "16"                                       sfr_leakage.obs.csv                                                             
 LEAK-17                                  CONTINUOUS  SFR                            ALL TIMES    "17"                                       sfr_leakage.obs.csv                                                             
 LEAK-18                                  CONTINUOUS  SFR                            ALL TIMES    "18"                                       sfr_leakage.obs.csv                                                             
 LEAK-19                                  CONTINUOUS  SFR                            ALL TIMES    "19"                                       sfr_leakage.obs.csv                                                             
 LEAK-20                                  CONTINUOUS  SFR                            ALL TIMES    "20"                                       sfr_leakage.obs.csv                                                             
 LEAK-21                                  CONTINUOUS  SFR                            ALL TIMES    "21"                                       sfr_leakage.obs.csv                                                             
 LEAK-22                                  CONTINUOUS  SFR                            ALL TIMES    "22"                                       sfr_leakage.obs.csv                                                             
 LEAK-23                                  CONTINUOUS  SFR                            ALL TIMES    "23"                                       sfr_leakage.obs.csv                                                             
 LEAK-24                                  CONTINUOUS  SFR                            ALL TIMES    "24"                                       sfr_leakage.obs.csv                                                             
 LEAK-25                                  CONTINUOUS  SFR                            ALL TIMES    "25"                                       sfr_leakage.obs.csv                                                             
 LEAK-26                                  CONTINUOUS  SFR                            ALL TIMES    "26"                                       sfr_leakage.obs.csv                                                             
 LEAK-27                                  CONTINUOUS  SFR                            ALL TIMES    "27"                                       sfr_leakage.obs.csv                                                             
 LEAK-28                                  CONTINUOUS  SFR                            ALL TIMES    "28"                                       sfr_leakage.obs.csv                                                             
 LEAK-29                                  CONTINUOUS  SFR                            ALL TIMES    "29"                                       sfr_leakage.obs.csv                                                             
 LEAK-30                                  CONTINUOUS  SFR                            ALL TIMES    "30"                                       sfr_leakage.obs.csv                                                             
 LEAK-31                                  CONTINUOUS  SFR                            ALL TIMES    "31"                                       sfr_leakage.obs.csv                                                             
 LEAK-32                                  CONTINUOUS  SFR                            ALL TIMES    "32"                                       sfr_leakage.obs.csv                                                             
 LEAK-33                                  CONTINUOUS  SFR                            ALL TIMES    "33"                                       sfr_leakage.obs.csv                                                             
 LEAK-34                                  CONTINUOUS  SFR                            ALL TIMES    "34"                                       sfr_leakage.obs.csv                                                             
 LEAK-35                                  CONTINUOUS  SFR                            ALL TIMES    "35"                                       sfr_leakage.obs.csv                                                             
 LEAK-36                                  CONTINUOUS  SFR                            ALL TIMES    "36"                                       sfr_leakage.obs.csv                                                             
 LEAK-37                                  CONTINUOUS  SFR                            ALL TIMES    "37"                                       sfr_leakage.obs.csv                                                             
 LEAK-38                                  CONTINUOUS  SFR                            ALL TIMES    "38"                                       sfr_leakage.obs.csv                                                             
 LEAK-39                                  CONTINUOUS  SFR                            ALL TIMES    "39"                                       sfr_leakage.obs.csv                                                             
 LEAK-40                                  CONTINUOUS  SFR                            ALL TIMES    "40"                                       sfr_leakage.obs.csv                                                             
 LEAK-41                                  CONTINUOUS  SFR                            ALL TIMES    "41"                                       sfr_leakage.obs.csv                                                             
 LEAK-42                                  CONTINUOUS  SFR                            ALL TIMES    "42"                                       sfr_leakage.obs.csv                                                             
 LEAK-43                                  CONTINUOUS  SFR                            ALL TIMES    "43"                                       sfr_leakage.obs.csv                                                             
 LEAK-44                                  CONTINUOUS  SFR                            ALL TIMES    "44"                                       sfr_leakage.obs.csv                                                             
 LEAK-45                                  CONTINUOUS  SFR                            ALL TIMES    "45"                                       sfr_leakage.obs.csv                                                             
 LEAK-46                                  CONTINUOUS  SFR                            ALL TIMES    "46"                                       sfr_leakage.obs.csv                                                             
 LEAK-47                                  CONTINUOUS  SFR                            ALL TIMES    "47"                                       sfr_leakage.obs.csv                                                             
 LEAK-48                                  CONTINUOUS  SFR                            ALL TIMES    "48"                                       sfr_leakage.obs.csv                                                             
 LEAK-49                                  CONTINUOUS  SFR                            ALL TIMES    "49"                                       sfr_leakage.obs.csv                                                             
 LEAK-50                                  CONTINUOUS  SFR                            ALL TIMES    "50"                                       sfr_leakage.obs.csv                                                             
 LEAK-51                                  CONTINUOUS  SFR                            ALL TIMES    "51"                                       sfr_leakage.obs.csv                                                             
 LEAK-52                                  CONTINUOUS  SFR                            ALL TIMES    "52"                                       sfr_leakage.obs.csv                                                             
 LEAK-53                                  CONTINUOUS  SFR                            ALL TIMES    "53"                                       sfr_leakage.obs.csv                                                             
 LEAK-54                                  CONTINUOUS  SFR                            ALL TIMES    "54"                                       sfr_leakage.obs.csv                                                             
 LEAK-55                                  CONTINUOUS  SFR                            ALL TIMES    "55"                                       sfr_leakage.obs.csv                                                             
 LEAK-56                                  CONTINUOUS  SFR                            ALL TIMES    "56"                                       sfr_leakage.obs.csv                                                             
 LEAK-57                                  CONTINUOUS  SFR                            ALL TIMES    "57"                                       sfr_leakage.obs.csv                                                             
 LEAK-58                                  CONTINUOUS  SFR                            ALL TIMES    "58"                                       sfr_leakage.obs.csv                                                             
 LEAK-59                                  CONTINUOUS  SFR                            ALL TIMES    "59"                                       sfr_leakage.obs.csv                                                             
 LEAK-60                                  CONTINUOUS  SFR                            ALL TIMES    "60"                                       sfr_leakage.obs.csv                                                             
 LEAK-61                                  CONTINUOUS  SFR                            ALL TIMES    "61"                                       sfr_leakage.obs.csv                                                             
 LEAK-62                                  CONTINUOUS  SFR                            ALL TIMES    "62"                                       sfr_leakage.obs.csv                                                             
 LEAK-63                                  CONTINUOUS  SFR                            ALL TIMES    "63"                                       sfr_leakage.obs.csv                                                             
 LEAK-64                                  CONTINUOUS  SFR                            ALL TIMES    "64"                                       sfr_leakage.obs.csv                                                             
 LEAK-65                                  CONTINUOUS  SFR                            ALL TIMES    "65"                                       sfr_leakage.obs.csv                                                             
 LEAK-66                                  CONTINUOUS  SFR                            ALL TIMES    "66"                                       sfr_leakage.obs.csv                                                             
 LEAK-67                                  CONTINUOUS  SFR                            ALL TIMES    "67"                                       sfr_leakage.obs.csv                                                             
 LEAK-68                                  CONTINUOUS  SFR                            ALL TIMES    "68"                                       sfr_leakage.obs.csv                                                             
 LEAK-69                                  CONTINUOUS  SFR                            ALL TIMES    "69"                                       sfr_leakage.obs.csv                                                             
 LEAK-70                                  CONTINUOUS  SFR                            ALL TIMES    "70"                                       sfr_leakage.obs.csv                                                             
 LEAK-71                                  CONTINUOUS  SFR                            ALL TIMES    "71"                                       sfr_leakage.obs.csv                                                             
 LEAK-72                                  CONTINUOUS  SFR                            ALL TIMES    "72"                                       sfr_leakage.obs.csv                                                             
 LEAK-73                                  CONTINUOUS  SFR                            ALL TIMES    "73"                                       sfr_leakage.obs.csv                                                             
 LEAK-74                                  CONTINUOUS  SFR                            ALL TIMES    "74"                                       sfr_leakage.obs.csv                                                             
 LEAK-75                                  CONTINUOUS  SFR                            ALL TIMES    "75"                                       sfr_leakage.obs.csv                                                             
 LEAK-76                                  CONTINUOUS  SFR                            ALL TIMES    "76"                                       sfr_leakage.obs.csv                                                             
 LEAK-77                                  CONTINUOUS  SFR                            ALL TIMES    "77"                                       sfr_leakage.obs.csv                                                             
 LEAK-78                                  CONTINUOUS  SFR                            ALL TIMES    "78"                                       sfr_leakage.obs.csv                                                             
 LEAK-79                                  CONTINUOUS  SFR                            ALL TIMES    "79"                                       sfr_leakage.obs.csv                                                             
 LEAK-80                                  CONTINUOUS  SFR                            ALL TIMES    "80"                                       sfr_leakage.obs.csv                                                             
 LEAK-81                                  CONTINUOUS  SFR                            ALL TIMES    "81"                                       sfr_leakage.obs.csv                                                             
 LEAK-82                                  CONTINUOUS  SFR                            ALL TIMES    "82"                                       sfr_leakage.obs.csv                                                             
 LEAK-83                                  CONTINUOUS  SFR                            ALL TIMES    "83"                                       sfr_leakage.obs.csv                                                             
 LEAK-84                                  CONTINUOUS  SFR                            ALL TIMES    "84"                                       sfr_leakage.obs.csv                                                             
 LEAK-85                                  CONTINUOUS  SFR                            ALL TIMES    "85"                                       sfr_leakage.obs.csv                                                             
 LEAK-86                                  CONTINUOUS  SFR                            ALL TIMES    "86"                                       sfr_leakage.obs.csv                                                             
 LEAK-87                                  CONTINUOUS  SFR                            ALL TIMES    "87"                                       sfr_leakage.obs.csv                                                             
 LEAK-88                                  CONTINUOUS  SFR                            ALL TIMES    "88"                                       sfr_leakage.obs.csv                                                             
 LEAK-89                                  CONTINUOUS  SFR                            ALL TIMES    "89"                                       sfr_leakage.obs.csv                                                             
 LEAK-90                                  CONTINUOUS  SFR                            ALL TIMES    "90"                                       sfr_leakage.obs.csv                                                             
 LEAK-91                                  CONTINUOUS  SFR                            ALL TIMES    "91"                                       sfr_leakage.obs.csv                                                             
 LEAK-92                                  CONTINUOUS  SFR                            ALL TIMES    "92"                                       sfr_leakage.obs.csv                                                             
 LEAK-93                                  CONTINUOUS  SFR                            ALL TIMES    "93"                                       sfr_leakage.obs.csv                                                             
 LEAK-94                                  CONTINUOUS  SFR                            ALL TIMES    "94"                                       sfr_leakage.obs.csv                                                             
 LEAK-95                                  CONTINUOUS  SFR                            ALL TIMES    "95"                                       sfr_leakage.obs.csv                                                             
 LEAK-96                                  CONTINUOUS  SFR                            ALL TIMES    "96"                                       sfr_leakage.obs.csv                                                             
 LEAK-97                                  CONTINUOUS  SFR                            ALL TIMES    "97"                                       sfr_leakage.obs.csv                                                             
 LEAK-98                                  CONTINUOUS  SFR                            ALL TIMES    "98"                                       sfr_leakage.obs.csv                                                             
 LEAK-99                                  CONTINUOUS  SFR                            ALL TIMES    "99"                                       sfr_leakage.obs.csv                                                             
 LEAK-100                                 CONTINUOUS  SFR                            ALL TIMES    "100"                                      sfr_leakage.obs.csv                                                             
 LEAK-101                                 CONTINUOUS  SFR                            ALL TIMES    "101"                                      sfr_leakage.obs.csv                                                             
 LEAK-102                                 CONTINUOUS  SFR                            ALL TIMES    "102"                                      sfr_leakage.obs.csv                                                             
 LEAK-103                                 CONTINUOUS  SFR                            ALL TIMES    "103"                                      sfr_leakage.obs.csv                                                             
 LEAK-104                                 CONTINUOUS  SFR                            ALL TIMES    "104"                                      sfr_leakage.obs.csv                                                             
 LEAK-105                                 CONTINUOUS  SFR                            ALL TIMES    "105"                                      sfr_leakage.obs.csv                                                             
 LEAK-106                                 CONTINUOUS  SFR                            ALL TIMES    "106"                                      sfr_leakage.obs.csv                                                             
 LEAK-107                                 CONTINUOUS  SFR                            ALL TIMES    "107"                                      sfr_leakage.obs.csv                                                             
 LEAK-108                                 CONTINUOUS  SFR                            ALL TIMES    "108"                                      sfr_leakage.obs.csv                                                             
 LEAK-109                                 CONTINUOUS  SFR                            ALL TIMES    "109"                                      sfr_leakage.obs.csv                                                             
 LEAK-110                                 CONTINUOUS  SFR                            ALL TIMES    "110"                                      sfr_leakage.obs.csv                                                             
 LEAK-111                                 CONTINUOUS  SFR                            ALL TIMES    "111"                                      sfr_leakage.obs.csv                                                             
 LEAK-112                                 CONTINUOUS  SFR                            ALL TIMES    "112"                                      sfr_leakage.obs.csv                                                             
 LEAK-113                                 CONTINUOUS  SFR                            ALL TIMES    "113"                                      sfr_leakage.obs.csv                                                             
 LEAK-114                                 CONTINUOUS  SFR                            ALL TIMES    "114"                                      sfr_leakage.obs.csv                                                             
 LEAK-115                                 CONTINUOUS  SFR                            ALL TIMES    "115"                                      sfr_leakage.obs.csv                                                             
 LEAK-116                                 CONTINUOUS  SFR                            ALL TIMES    "116"                                      sfr_leakage.obs.csv                                                             
 LEAK-117                                 CONTINUOUS  SFR                            ALL TIMES    "117"                                      sfr_leakage.obs.csv                                                             
 LEAK-118                                 CONTINUOUS  SFR                            ALL TIMES    "118"                                      sfr_leakage.obs.csv                                                             
 LEAK-119                                 CONTINUOUS  SFR                            ALL TIMES    "119"                                      sfr_leakage.obs.csv                                                             
 LEAK-120                                 CONTINUOUS  SFR                            ALL TIMES    "120"                                      sfr_leakage.obs.csv                                                             
 LEAK-121                                 CONTINUOUS  SFR                            ALL TIMES    "121"                                      sfr_leakage.obs.csv                                                             
 LEAK-122                                 CONTINUOUS  SFR                            ALL TIMES    "122"                                      sfr_leakage.obs.csv                                                             
 LEAK-123                                 CONTINUOUS  SFR                            ALL TIMES    "123"                                      sfr_leakage.obs.csv                                                             
 LEAK-124                                 CONTINUOUS  SFR                            ALL TIMES    "124"                                      sfr_leakage.obs.csv                                                             
 LEAK-125                                 CONTINUOUS  SFR                            ALL TIMES    "125"                                      sfr_leakage.obs.csv                                                             
 LEAK-126                                 CONTINUOUS  SFR                            ALL TIMES    "126"                                      sfr_leakage.obs.csv                                                             
 LEAK-127                                 CONTINUOUS  SFR                            ALL TIMES    "127"                                      sfr_leakage.obs.csv                                                             
 LEAK-128                                 CONTINUOUS  SFR                            ALL TIMES    "128"                                      sfr_leakage.obs.csv                                                             
 LEAK-129                                 CONTINUOUS  SFR                            ALL TIMES    "129"                                      sfr_leakage.obs.csv                                                             
 LEAK-130                                 CONTINUOUS  SFR                            ALL TIMES    "130"                                      sfr_leakage.obs.csv                                                             
 LEAK-131                                 CONTINUOUS  SFR                            ALL TIMES    "131"                                      sfr_leakage.obs.csv                                                             
 LEAK-132                                 CONTINUOUS  SFR                            ALL TIMES    "132"                                      sfr_leakage.obs.csv                                                             
 LEAK-133                                 CONTINUOUS  SFR                            ALL TIMES    "133"                                      sfr_leakage.obs.csv                                                             
 LEAK-134                                 CONTINUOUS  SFR                            ALL TIMES    "134"                                      sfr_leakage.obs.csv                                                             
 LEAK-135                                 CONTINUOUS  SFR                            ALL TIMES    "135"                                      sfr_leakage.obs.csv                                                             
 LEAK-136                                 CONTINUOUS  SFR                            ALL TIMES    "136"                                      sfr_leakage.obs.csv                                                             
 LEAK-137                                 CONTINUOUS  SFR                            ALL TIMES    "137"                                      sfr_leakage.obs.csv                                                             
 LEAK-138                                 CONTINUOUS  SFR                            ALL TIMES    "138"                                      sfr_leakage.obs.csv                                                             
 LEAK-139                                 CONTINUOUS  SFR                            ALL TIMES    "139"                                      sfr_leakage.obs.csv                                                             
 LEAK-140                                 CONTINUOUS  SFR                            ALL TIMES    "140"                                      sfr_leakage.obs.csv                                                             
 LEAK-141                                 CONTINUOUS  SFR                            ALL TIMES    "141"                                      sfr_leakage.obs.csv                                                             
 LEAK-142                                 CONTINUOUS  SFR                            ALL TIMES    "142"                                      sfr_leakage.obs.csv                                                             
 LEAK-143                                 CONTINUOUS  SFR                            ALL TIMES    "143"                                      sfr_leakage.obs.csv                                                             
 LEAK-144                                 CONTINUOUS  SFR                            ALL TIMES    "144"                                      sfr_leakage.obs.csv                                                             
 LEAK-145                                 CONTINUOUS  SFR                            ALL TIMES    "145"                                      sfr_leakage.obs.csv                                                             
 LEAK-146                                 CONTINUOUS  SFR                            ALL TIMES    "146"                                      sfr_leakage.obs.csv                                                             
 LEAK-147                                 CONTINUOUS  SFR                            ALL TIMES    "147"                                      sfr_leakage.obs.csv                                                             
 LEAK-148                                 CONTINUOUS  SFR                            ALL TIMES    "148"                                      sfr_leakage.obs.csv                                                             
 LEAK-149                                 CONTINUOUS  SFR                            ALL TIMES    "149"                                      sfr_leakage.obs.csv                                                             
 LEAK-150                                 CONTINUOUS  SFR                            ALL TIMES    "150"                                      sfr_leakage.obs.csv                                                             
 LEAK-151                                 CONTINUOUS  SFR                            ALL TIMES    "151"                                      sfr_leakage.obs.csv                                                             
 LEAK-152                                 CONTINUOUS  SFR                            ALL TIMES    "152"                                      sfr_leakage.obs.csv                                                             
 LEAK-153                                 CONTINUOUS  SFR                            ALL TIMES    "153"                                      sfr_leakage.obs.csv                                                             
 LEAK-154                                 CONTINUOUS  SFR                            ALL TIMES    "154"                                      sfr_leakage.obs.csv                                                             
 LEAK-155                                 CONTINUOUS  SFR                            ALL TIMES    "155"                                      sfr_leakage.obs.csv                                                             
 LEAK-156                                 CONTINUOUS  SFR                            ALL TIMES    "156"                                      sfr_leakage.obs.csv                                                             
 LEAK-157                                 CONTINUOUS  SFR                            ALL TIMES    "157"                                      sfr_leakage.obs.csv                                                             
 LEAK-158                                 CONTINUOUS  SFR                            ALL TIMES    "158"                                      sfr_leakage.obs.csv                                                             
 LEAK-159                                 CONTINUOUS  SFR                            ALL TIMES    "159"                                      sfr_leakage.obs.csv                                                             
 LEAK-160                                 CONTINUOUS  SFR                            ALL TIMES    "160"                                      sfr_leakage.obs.csv                                                             
 LEAK-161                                 CONTINUOUS  SFR                            ALL TIMES    "161"                                      sfr_leakage.obs.csv                                                             
 LEAK-162                                 CONTINUOUS  SFR                            ALL TIMES    "162"                                      sfr_leakage.obs.csv                                                             
 LEAK-163                                 CONTINUOUS  SFR                            ALL TIMES    "163"                                      sfr_leakage.obs.csv                                                             
 LEAK-164                                 CONTINUOUS  SFR                            ALL TIMES    "164"                                      sfr_leakage.obs.csv                                                             
 LEAK-165                                 CONTINUOUS  SFR                            ALL TIMES    "165"                                      sfr_leakage.obs.csv                                                             
 LEAK-166                                 CONTINUOUS  SFR                            ALL TIMES    "166"                                      sfr_leakage.obs.csv                                                             
 LEAK-167                                 CONTINUOUS  SFR                            ALL TIMES    "167"                                      sfr_leakage.obs.csv                                                             
 LEAK-168                                 CONTINUOUS  SFR                            ALL TIMES    "168"                                      sfr_leakage.obs.csv                                                             
 LEAK-169                                 CONTINUOUS  SFR                            ALL TIMES    "169"                                      sfr_leakage.obs.csv                                                             
 LEAK-170                                 CONTINUOUS  SFR                            ALL TIMES    "170"                                      sfr_leakage.obs.csv                                                             
 LEAK-171                                 CONTINUOUS  SFR                            ALL TIMES    "171"                                      sfr_leakage.obs.csv                                                             
 LEAK-172                                 CONTINUOUS  SFR                            ALL TIMES    "172"                                      sfr_leakage.obs.csv                                                             
 LEAK-173                                 CONTINUOUS  SFR                            ALL TIMES    "173"                                      sfr_leakage.obs.csv                                                             
 LEAK-174                                 CONTINUOUS  SFR                            ALL TIMES    "174"                                      sfr_leakage.obs.csv                                                             
 LEAK-175                                 CONTINUOUS  SFR                            ALL TIMES    "175"                                      sfr_leakage.obs.csv                                                             
 LEAK-176                                 CONTINUOUS  SFR                            ALL TIMES    "176"                                      sfr_leakage.obs.csv                                                             
 LEAK-177                                 CONTINUOUS  SFR                            ALL TIMES    "177"                                      sfr_leakage.obs.csv                                                             
 LEAK-178                                 CONTINUOUS  SFR                            ALL TIMES    "178"                                      sfr_leakage.obs.csv                                                             
 LEAK-179                                 CONTINUOUS  SFR                            ALL TIMES    "179"                                      sfr_leakage.obs.csv                                                             
 LEAK-180                                 CONTINUOUS  SFR                            ALL TIMES    "180"                                      sfr_leakage.obs.csv                                                             
 LEAK-181                                 CONTINUOUS  SFR                            ALL TIMES    "181"                                      sfr_leakage.obs.csv                                                             
 LEAK-182                                 CONTINUOUS  SFR                            ALL TIMES    "182"                                      sfr_leakage.obs.csv                                                             
 LEAK-183                                 CONTINUOUS  SFR                            ALL TIMES    "183"                                      sfr_leakage.obs.csv                                                             
 LEAK-184                                 CONTINUOUS  SFR                            ALL TIMES    "184"                                      sfr_leakage.obs.csv                                                             
 LEAK-185                                 CONTINUOUS  SFR                            ALL TIMES    "185"                                      sfr_leakage.obs.csv                                                             
 LEAK-186                                 CONTINUOUS  SFR                            ALL TIMES    "186"                                      sfr_leakage.obs.csv                                                             
 LEAK-187                                 CONTINUOUS  SFR                            ALL TIMES    "187"                                      sfr_leakage.obs.csv                                                             
 LEAK-188                                 CONTINUOUS  SFR                            ALL TIMES    "188"                                      sfr_leakage.obs.csv                                                             
 LEAK-189                                 CONTINUOUS  SFR                            ALL TIMES    "189"                                      sfr_leakage.obs.csv                                                             
 LEAK-190                                 CONTINUOUS  SFR                            ALL TIMES    "190"                                      sfr_leakage.obs.csv                                                             
 LEAK-191                                 CONTINUOUS  SFR                            ALL TIMES    "191"                                      sfr_leakage.obs.csv                                                             
 LEAK-192                                 CONTINUOUS  SFR                            ALL TIMES    "192"                                      sfr_leakage.obs.csv                                                             
 LEAK-193                                 CONTINUOUS  SFR                            ALL TIMES    "193"                                      sfr_leakage.obs.csv                                                             
 LEAK-194                                 CONTINUOUS  SFR                            ALL TIMES    "194"                                      sfr_leakage.obs.csv                                                             
 LEAK-195                                 CONTINUOUS  SFR                            ALL TIMES    "195"                                      sfr_leakage.obs.csv                                                             
 LEAK-196                                 CONTINUOUS  SFR                            ALL TIMES    "196"                                      sfr_leakage.obs.csv                                                             
 LEAK-197                                 CONTINUOUS  SFR                            ALL TIMES    "197"                                      sfr_leakage.obs.csv                                                             
 LEAK-198                                 CONTINUOUS  SFR                            ALL TIMES    "198"                                      sfr_leakage.obs.csv                                                             
 LEAK-199                                 CONTINUOUS  SFR                            ALL TIMES    "199"                                      sfr_leakage.obs.csv                                                             
 LEAK-200                                 CONTINUOUS  SFR                            ALL TIMES    "200"                                      sfr_leakage.obs.csv                                                             
 LEAK-201                                 CONTINUOUS  SFR                            ALL TIMES    "201"                                      sfr_leakage.obs.csv                                                             
 LEAK-202                                 CONTINUOUS  SFR                            ALL TIMES    "202"                                      sfr_leakage.obs.csv                                                             
 LEAK-203                                 CONTINUOUS  SFR                            ALL TIMES    "203"                                      sfr_leakage.obs.csv                                                             
 LEAK-204                                 CONTINUOUS  SFR                            ALL TIMES    "204"                                      sfr_leakage.obs.csv                                                             
 LEAK-205                                 CONTINUOUS  SFR                            ALL TIMES    "205"                                      sfr_leakage.obs.csv                                                             
 LEAK-206                                 CONTINUOUS  SFR                            ALL TIMES    "206"                                      sfr_leakage.obs.csv                                                             
 LEAK-207                                 CONTINUOUS  SFR                            ALL TIMES    "207"                                      sfr_leakage.obs.csv                                                             
 LEAK-208                                 CONTINUOUS  SFR                            ALL TIMES    "208"                                      sfr_leakage.obs.csv                                                             
 LEAK-209                                 CONTINUOUS  SFR                            ALL TIMES    "209"                                      sfr_leakage.obs.csv                                                             
 LEAK-210                                 CONTINUOUS  SFR                            ALL TIMES    "210"                                      sfr_leakage.obs.csv                                                             
 LEAK-211                                 CONTINUOUS  SFR                            ALL TIMES    "211"                                      sfr_leakage.obs.csv                                                             
 LEAK-212                                 CONTINUOUS  SFR                            ALL TIMES    "212"                                      sfr_leakage.obs.csv                                                             
 LEAK-213                                 CONTINUOUS  SFR                            ALL TIMES    "213"                                      sfr_leakage.obs.csv                                                             
 LEAK-214                                 CONTINUOUS  SFR                            ALL TIMES    "214"                                      sfr_leakage.obs.csv                                                             
 LEAK-215                                 CONTINUOUS  SFR                            ALL TIMES    "215"                                      sfr_leakage.obs.csv                                                             
 LEAK-216                                 CONTINUOUS  SFR                            ALL TIMES    "216"                                      sfr_leakage.obs.csv                                                             
 LEAK-217                                 CONTINUOUS  SFR                            ALL TIMES    "217"                                      sfr_leakage.obs.csv                                                             
 LEAK-218                                 CONTINUOUS  SFR                            ALL TIMES    "218"                                      sfr_leakage.obs.csv                                                             
 LEAK-219                                 CONTINUOUS  SFR                            ALL TIMES    "219"                                      sfr_leakage.obs.csv                                                             
 LEAK-220                                 CONTINUOUS  SFR                            ALL TIMES    "220"                                      sfr_leakage.obs.csv                                                             
 LEAK-221                                 CONTINUOUS  SFR                            ALL TIMES    "221"                                      sfr_leakage.obs.csv                                                             
 LEAK-222                                 CONTINUOUS  SFR                            ALL TIMES    "222"                                      sfr_leakage.obs.csv                                                             
 LEAK-223                                 CONTINUOUS  SFR                            ALL TIMES    "223"                                      sfr_leakage.obs.csv                                                             
 LEAK-224                                 CONTINUOUS  SFR                            ALL TIMES    "224"                                      sfr_leakage.obs.csv                                                             
 LEAK-225                                 CONTINUOUS  SFR                            ALL TIMES    "225"                                      sfr_leakage.obs.csv                                                             
 LEAK-226                                 CONTINUOUS  SFR                            ALL TIMES    "226"                                      sfr_leakage.obs.csv                                                             
 LEAK-227                                 CONTINUOUS  SFR                            ALL TIMES    "227"                                      sfr_leakage.obs.csv                                                             
 LEAK-228                                 CONTINUOUS  SFR                            ALL TIMES    "228"                                      sfr_leakage.obs.csv                                                             
 LEAK-229                                 CONTINUOUS  SFR                            ALL TIMES    "229"                                      sfr_leakage.obs.csv                                                             
 LEAK-230                                 CONTINUOUS  SFR                            ALL TIMES    "230"                                      sfr_leakage.obs.csv                                                             
 LEAK-231                                 CONTINUOUS  SFR                            ALL TIMES    "231"                                      sfr_leakage.obs.csv                                                             
 LEAK-232                                 CONTINUOUS  SFR                            ALL TIMES    "232"                                      sfr_leakage.obs.csv                                                             
 LEAK-233                                 CONTINUOUS  SFR                            ALL TIMES    "233"                                      sfr_leakage.obs.csv                                                             
 LEAK-234                                 CONTINUOUS  SFR                            ALL TIMES    "234"                                      sfr_leakage.obs.csv                                                             
 LEAK-235                                 CONTINUOUS  SFR                            ALL TIMES    "235"                                      sfr_leakage.obs.csv                                                             
 LEAK-236                                 CONTINUOUS  SFR                            ALL TIMES    "236"                                      sfr_leakage.obs.csv                                                             
 LEAK-237                                 CONTINUOUS  SFR                            ALL TIMES    "237"                                      sfr_leakage.obs.csv                                                             
 LEAK-238                                 CONTINUOUS  SFR                            ALL TIMES    "238"                                      sfr_leakage.obs.csv                                                             
 LEAK-239                                 CONTINUOUS  SFR                            ALL TIMES    "239"                                      sfr_leakage.obs.csv                                                             
 LEAK-240                                 CONTINUOUS  SFR                            ALL TIMES    "240"                                      sfr_leakage.obs.csv                                                             
 LEAK-241                                 CONTINUOUS  SFR                            ALL TIMES    "241"                                      sfr_leakage.obs.csv                                                             
 LEAK-242                                 CONTINUOUS  SFR                            ALL TIMES    "242"                                      sfr_leakage.obs.csv                                                             
 LEAK-243                                 CONTINUOUS  SFR                            ALL TIMES    "243"                                      sfr_leakage.obs.csv                                                             
 LEAK-244                                 CONTINUOUS  SFR                            ALL TIMES    "244"                                      sfr_leakage.obs.csv                                                             
 LEAK-245                                 CONTINUOUS  SFR                            ALL TIMES    "245"                                      sfr_leakage.obs.csv                                                             
 LEAK-246                                 CONTINUOUS  SFR                            ALL TIMES    "246"                                      sfr_leakage.obs.csv                                                             
 LEAK-247                                 CONTINUOUS  SFR                            ALL TIMES    "247"                                      sfr_leakage.obs.csv                                                             
 LEAK-248                                 CONTINUOUS  SFR                            ALL TIMES    "248"                                      sfr_leakage.obs.csv                                                             
 LEAK-249                                 CONTINUOUS  SFR                            ALL TIMES    "249"                                      sfr_leakage.obs.csv                                                             
 LEAK-250                                 CONTINUOUS  SFR                            ALL TIMES    "250"                                      sfr_leakage.obs.csv                                                             
 LEAK-251                                 CONTINUOUS  SFR                            ALL TIMES    "251"                                      sfr_leakage.obs.csv                                                             
 LEAK-252                                 CONTINUOUS  SFR                            ALL TIMES    "252"                                      sfr_leakage.obs.csv                                                             
 LEAK-253                                 CONTINUOUS  SFR                            ALL TIMES    "253"                                      sfr_leakage.obs.csv                                                             
 LEAK-254                                 CONTINUOUS  SFR                            ALL TIMES    "254"                                      sfr_leakage.obs.csv                                                             
 LEAK-255                                 CONTINUOUS  SFR                            ALL TIMES    "255"                                      sfr_leakage.obs.csv                                                             
 LEAK-256                                 CONTINUOUS  SFR                            ALL TIMES    "256"                                      sfr_leakage.obs.csv                                                             
 LEAK-257                                 CONTINUOUS  SFR                            ALL TIMES    "257"                                      sfr_leakage.obs.csv                                                             
 LEAK-258                                 CONTINUOUS  SFR                            ALL TIMES    "258"                                      sfr_leakage.obs.csv                                                             
 LEAK-259                                 CONTINUOUS  SFR                            ALL TIMES    "259"                                      sfr_leakage.obs.csv                                                             
 LEAK-260                                 CONTINUOUS  SFR                            ALL TIMES    "260"                                      sfr_leakage.obs.csv                                                             
 LEAK-261                                 CONTINUOUS  SFR                            ALL TIMES    "261"                                      sfr_leakage.obs.csv                                                             
 LEAK-262                                 CONTINUOUS  SFR                            ALL TIMES    "262"                                      sfr_leakage.obs.csv                                                             
 LEAK-263                                 CONTINUOUS  SFR                            ALL TIMES    "263"                                      sfr_leakage.obs.csv                                                             
 LEAK-264                                 CONTINUOUS  SFR                            ALL TIMES    "264"                                      sfr_leakage.obs.csv                                                             
 LEAK-265                                 CONTINUOUS  SFR                            ALL TIMES    "265"                                      sfr_leakage.obs.csv                                                             
 LEAK-266                                 CONTINUOUS  SFR                            ALL TIMES    "266"                                      sfr_leakage.obs.csv                                                             
 LEAK-267                                 CONTINUOUS  SFR                            ALL TIMES    "267"                                      sfr_leakage.obs.csv                                                             
 LEAK-268                                 CONTINUOUS  SFR                            ALL TIMES    "268"                                      sfr_leakage.obs.csv                                                             
 LEAK-269                                 CONTINUOUS  SFR                            ALL TIMES    "269"                                      sfr_leakage.obs.csv                                                             
 LEAK-270                                 CONTINUOUS  SFR                            ALL TIMES    "270"                                      sfr_leakage.obs.csv                                                             
 ----------------------------------------------------------------------------------------------------------------------------------------------------------------------------------------------------------------------------



 SFR PACKAGE (SFR) STATIC REACH DATA
 ---------------------------------------------------------------------------------------------------------------------------------------
                                                                                                                              UPSTREAM  
   NUMBER   CELLID                  LENGTH       WIDTH        SLOPE         TOP       THICKNESS        HK       ROUGHNESS     FRACTION  
 ---------------------------------------------------------------------------------------------------------------------------------------
     1      (1,3210)              5.8800       2.0000       1.00000E-03  143.61       1.0000       86.400       3.00000E-02  1.0000     
     2      (1,3208)              1.8500       2.0000       1.00000E-03  143.50       1.0000       86.400       3.00000E-02  1.0000     
     3      (1,3206)              3.5600       2.0000       1.00000E-03  143.45       1.0000       86.400       3.00000E-02  1.0000     
     4      (1,3205)              5.5300       2.0000       1.00000E-03  143.45       1.0000       86.400       3.00000E-02  1.0000     
     5      (1,3202)              2.8400       2.0000       1.00000E-03  143.45       1.0000       86.400       3.00000E-02  1.0000     
     6      (1,3094)              2.7700       2.0000       1.00000E-03  143.45       1.0000       86.400       3.00000E-02  1.0000     
     7      (1,3093)              6.3300       2.0000       1.00000E-03  143.42       1.0000       86.400       3.00000E-02  1.0000     
     8      (1,3090)              0.35000      2.0000       1.00000E-03  143.33       1.0000       86.400       3.00000E-02  1.0000     
     9      (1,3088)              4.9900       2.0000       1.00000E-03  143.33       1.0000       86.400       3.00000E-02  1.0000     
     10     (1,3087)              5.6600       2.0000       1.00000E-03  143.33       1.0000       86.400       3.00000E-02  1.0000     
     11     (1,2975)              2.1500       2.0000       1.00000E-03  143.33       1.0000       86.400       3.00000E-02  1.0000     
     12     (1,2972)              3.3800       2.0000       1.00000E-03  143.33       1.0000       86.400       3.00000E-02  1.0000     
     13     (1,2970)              5.7800       2.0000       1.00000E-03  143.28       1.0000       86.400       3.00000E-02  1.0000     
     14     (1,2969)              0.57000      2.0000       1.00000E-03  143.25       1.0000       86.400       3.00000E-02  1.0000     
     15     (1,2817)              5.3100       2.0000       1.00000E-03  143.14       1.0000       86.400       3.00000E-02  1.0000     
     16     (1,2814)              5.2700       2.0000       1.00000E-03  143.14       1.0000       86.400       3.00000E-02  1.0000     
     17     (1,2813)              0.38000      2.0000       1.00000E-03  143.14       1.0000       86.400       3.00000E-02  1.0000     
     18     (1,2965)              4.7000       2.0000       1.00000E-03  143.14       1.0000       86.400       3.00000E-02  1.0000     
     19     (1,2962)              5.0400       2.0000       1.00000E-03  143.07       1.0000       86.400       3.00000E-02  1.0000     
     20     (1,2961)              1.6100       2.0000       1.00000E-03  143.07       1.0000       86.400       3.00000E-02  1.0000     
     21     (1,2809)              3.4900       2.0000       1.00000E-03  143.07       1.0000       86.400       3.00000E-02  1.0000     
     22     (1,2806)              5.1700       2.0000       1.00000E-03  143.07       1.0000       86.400       3.00000E-02  1.0000     
     23     (1,2805)              5.1200       2.0000       1.00000E-03  143.07       1.0000       86.400       3.00000E-02  1.0000     
     24     (1,2802)              5.2700       2.0000       1.00000E-03  143.07       1.0000       86.400       3.00000E-02  1.0000     
     25     (1,2801)              0.89000      2.0000       1.00000E-03  143.07       1.0000       86.400       3.00000E-02  1.0000     
     26     (1,2799)              4.5200       2.0000       1.00000E-03  143.03       1.0000       86.400       3.00000E-02  1.0000     
     27     (1,2796)              5.1500       2.0000       1.00000E-03  143.03       1.0000       86.400       3.00000E-02  1.0000     
     28     (1,2795)              5.0800       2.0000       1.00000E-03  143.03       1.0000       86.400       3.00000E-02  1.0000     
     29     (1,2792)              5.1200       2.0000       1.00000E-03  143.03       1.0000       86.400       3.00000E-02  1.0000     
     30     (1,2791)              5.1900       2.0000       1.00000E-03  143.03       1.0000       86.400       3.00000E-02  1.0000     
     31     (1,2788)              1.0000       2.0000       1.00000E-03  143.03       1.0000       86.400       3.00000E-02  1.0000     
     32     (1,2790)              4.2300       2.0000       1.00000E-03  143.03       1.0000       86.400       3.00000E-02  1.0000     
     33     (1,2789)              5.2600       2.0000       1.00000E-03  143.03       1.0000       86.400       3.00000E-02  1.0000     
     34     (1,2786)              5.1600       2.0000       1.00000E-03  143.03       1.0000       86.400       3.00000E-02  1.0000     
     35     (1,2785)              2.6300       2.0000       1.00000E-03  143.03       1.0000       86.400       3.00000E-02  1.0000     
     36     (1,2952)              2.5600       2.0000       1.00000E-03  143.03       1.0000       86.400       3.00000E-02  1.0000     
     37     (1,2949)              5.1000       2.0000       1.00000E-03  143.03       1.0000       86.400       3.00000E-02  1.0000     
     38     (1,2948)              5.1000       2.0000       1.00000E-03  143.03       1.0000       86.400       3.00000E-02  1.0000     
     39     (1,2945)              5.2200       2.0000       1.00000E-03  143.01       1.0000       86.400       3.00000E-02  1.0000     
     40     (1,2944)              4.6700       2.0000       1.00000E-03  142.55       1.0000       86.400       3.00000E-02  1.0000     
     41     (1,2946)              0.48000      2.0000       1.00000E-03  142.55       1.0000       86.400       3.00000E-02  1.0000     
     42     (1,2943)              5.2200       2.0000       1.00000E-03  142.05       1.0000       86.400       3.00000E-02  1.0000     
     43     (1,2942)              5.2000       2.0000       1.00000E-03  141.75       1.0000       86.400       3.00000E-02  1.0000     
     44     (1,2939)              5.0700       2.0000       1.00000E-03  141.22       1.0000       86.400       3.00000E-02  1.0000     
     45     (1,2938)              5.3600       2.0000       1.00000E-03  140.98       1.0000       86.400       3.00000E-02  1.0000     
     46     (1,3071)              3.00000E-02  2.0000       1.00000E-03  140.62       1.0000       86.400       3.00000E-02  1.0000     
     47     (1,3068)              6.1900       2.0000       1.00000E-03  140.43       1.0000       86.400       3.00000E-02  1.0000     
     48     (1,3067)              2.1000       2.0000       1.00000E-03  140.43       1.0000       86.400       3.00000E-02  1.0000     
     49     (1,3069)              4.1300       2.0000       1.00000E-03  140.05       1.0000       86.400       3.00000E-02  1.0000     
     50     (1,3066)              4.0800       2.0000       1.00000E-03  140.05       1.0000       86.400       3.00000E-02  1.0000     
     51     (1,3183)              2.3900       2.0000       1.00000E-03  139.72       1.0000       86.400       3.00000E-02  1.0000     
     52     (1,3182)              5.6900       2.0000       1.00000E-03  139.72       1.0000       86.400       3.00000E-02  1.0000     
     53     (1,3184)              1.1000       2.0000       1.00000E-03  139.56       1.0000       86.400       3.00000E-02  1.0000     
     54     (1,3181)              5.1300       2.0000       1.00000E-03  139.54       1.0000       86.400       3.00000E-02  1.0000     
     55     (1,3262)              3.6800       2.0000       1.00000E-03  139.39       1.0000       86.400       3.00000E-02  1.0000     
     56     (1,3261)              2.5200       2.0000       1.00000E-03  139.36       1.0000       86.400       3.00000E-02  1.0000     
     57     (1,3263)              5.5300       2.0000       1.00000E-03  139.20       1.0000       86.400       3.00000E-02  1.0000     
     58     (1,3330)              5.1200       2.0000       1.00000E-03  139.02       1.0000       86.400       3.00000E-02  1.0000     
     59     (1,3332)              3.1200       2.0000       1.00000E-03  138.96       1.0000       86.400       3.00000E-02  1.0000     
     60     (1,3329)              2.5900       2.0000       1.00000E-03  138.89       1.0000       86.400       3.00000E-02  1.0000     
     61     (1,3410)              4.9600       2.0000       1.00000E-03  138.89       1.0000       86.400       3.00000E-02  1.0000     
     62     (1,3409)              2.1100       2.0000       1.00000E-03  138.84       1.0000       86.400       3.00000E-02  1.0000     
     63     (1,3411)              3.6300       2.0000       1.00000E-03  138.84       1.0000       86.400       3.00000E-02  1.0000     
     64     (1,3408)              5.6600       2.0000       1.00000E-03  138.65       1.0000       86.400       3.00000E-02  1.0000     
     65     (1,3407)              5.1100       2.0000       1.00000E-03  138.58       1.0000       86.400       3.00000E-02  1.0000     
     66     (1,3404)              5.2300       2.0000       1.00000E-03  138.49       1.0000       86.400       3.00000E-02  1.0000     
     67     (1,3403)              5.1900       2.0000       1.00000E-03  138.33       1.0000       86.400       3.00000E-02  1.0000     
     68     (1,3400)              5.2700       2.0000       1.00000E-03  138.33       1.0000       86.400       3.00000E-02  1.0000     
     69     (1,3399)              5.3600       2.0000       1.00000E-03  138.33       1.0000       86.400       3.00000E-02  1.0000     
     70     (1,3396)              0.22000      2.0000       1.00000E-03  138.33       1.0000       86.400       3.00000E-02  1.0000     
     71     (1,3479)              5.3600       2.0000       1.00000E-03  138.33       1.0000       86.400       3.00000E-02  1.0000     
     72     (1,3478)              5.3700       2.0000       1.00000E-03  138.33       1.0000       86.400       3.00000E-02  1.0000     
     73     (1,3475)              1.9500       2.0000       1.00000E-03  138.33       1.0000       86.400       3.00000E-02  1.0000     
     74     (1,3477)              3.3900       2.0000       1.00000E-03  138.33       1.0000       86.400       3.00000E-02  1.0000     
     75     (1,3476)              5.2700       2.0000       1.00000E-03  138.33       1.0000       86.400       3.00000E-02  1.0000     
     76     (1,3473)              5.2700       2.0000       1.00000E-03  138.33       1.0000       86.400       3.00000E-02  1.0000     
     77     (1,3472)              1.8600       2.0000       1.00000E-03  138.33       1.0000       86.400       3.00000E-02  1.0000     
     78     (1,3543)              3.4100       2.0000       1.00000E-03  138.33       1.0000       86.400       3.00000E-02  1.0000     
     79     (1,3540)              5.2100       2.0000       1.00000E-03  138.33       1.0000       86.400       3.00000E-02  1.0000     
     80     (1,3539)              5.3700       2.0000       1.00000E-03  138.33       1.0000       86.400       3.00000E-02  1.0000     
     81     (1,3536)              5.0500       2.0000       1.00000E-03  138.33       1.0000       86.400       3.00000E-02  1.0000     
     82     (1,3535)              6.7400       2.0000       1.00000E-03  138.33       1.0000       86.400       3.00000E-02  1.0000     
     83     (1,3532)              1.1000       2.0000       1.00000E-03  138.33       1.0000       86.400       3.00000E-02  1.0000     
     84     (1,3467)              5.9700       2.0000       1.00000E-03  138.33       1.0000       86.400       3.00000E-02  1.0000     
     85     (1,3466)              1.1000       2.0000       1.00000E-03  138.24       1.0000       86.400       3.00000E-02  1.0000     
     86     (1,3464)              5.9700       2.0000       1.00000E-03  138.24       1.0000       86.400       3.00000E-02  1.0000     
     87     (1,3461)              1.1000       2.0000       1.00000E-03  137.98       1.0000       86.400       3.00000E-02  1.0000     
     88     (1,3387)              5.9700       2.0000       1.00000E-03  137.98       1.0000       86.400       3.00000E-02  1.0000     
     89     (1,3386)              1.1000       2.0000       1.00000E-03  137.56       1.0000       86.400       3.00000E-02  1.0000     
     90     (1,3384)              5.9700       2.0000       1.00000E-03  137.56       1.0000       86.400       3.00000E-02  1.0000     
     91     (1,3381)              1.1000       2.0000       1.00000E-03  137.21       1.0000       86.400       3.00000E-02  1.0000     
     92     (1,3315)              5.9700       2.0000       1.00000E-03  137.21       1.0000       86.400       3.00000E-02  1.0000     
     93     (1,3314)              1.1000       2.0000       1.00000E-03  137.20       1.0000       86.400       3.00000E-02  1.0000     
     94     (1,3312)              6.3600       2.0000       1.00000E-03  137.11       1.0000       86.400       3.00000E-02  1.0000     
     95     (1,3248)              2.4400       2.0000       1.00000E-03  136.90       1.0000       86.400       3.00000E-02  1.0000     
     96     (1,3245)              3.7300       2.0000       1.00000E-03  136.63       1.0000       86.400       3.00000E-02  1.0000     
     97     (1,3243)              5.6800       2.0000       1.00000E-03  136.63       1.0000       86.400       3.00000E-02  1.0000     
     98     (1,3140)              1.7200       2.0000       1.00000E-03  136.63       1.0000       86.400       3.00000E-02  1.0000     
     99     (1,3137)              4.6500       2.0000       1.00000E-03  136.63       1.0000       86.400       3.00000E-02  1.0000     
    100     (1,3132)              5.6900       2.0000       1.00000E-03  136.63       1.0000       86.400       3.00000E-02  1.0000     
    101     (1,3012)              6.1000       2.0000       1.00000E-03  136.63       1.0000       86.400       3.00000E-02  1.0000     
    102     (1,3010)              3.6600       2.0000       1.00000E-03  136.63       1.0000       86.400       3.00000E-02  1.0000     
    103     (1,3011)              7.3100       2.0000       1.00000E-03  136.63       1.0000       86.400       3.00000E-02  1.0000     
    104     (1,3017)              1.9500       2.0000       1.00000E-03  136.63       1.0000       86.400       3.00000E-02  1.0000     
    105     (1,2866)              5.2700       2.0000       1.00000E-03  136.63       1.0000       86.400       3.00000E-02  1.0000     
    106     (1,2864)              3.5600       2.0000       1.00000E-03  136.63       1.0000       86.400       3.00000E-02  1.0000     
    107     (1,2865)              2.6500       2.0000       1.00000E-03  136.63       1.0000       86.400       3.00000E-02  1.0000     
    108     (1,2709)              2.5000       2.0000       1.00000E-03  136.63       1.0000       86.400       3.00000E-02  1.0000     
    109     (1,2707)              3.3800       2.0000       1.00000E-03  136.57       1.0000       86.400       3.00000E-02  1.0000     
    110     (1,2705)              5.0000       2.0000       1.00000E-03  136.49       1.0000       86.400       3.00000E-02  1.0000     
    111     (1,2606)              5.4100       2.0000       1.00000E-03  136.36       1.0000       86.400       3.00000E-02  1.0000     
    112     (1,2604)              5.0000       2.0000       1.00000E-03  136.30       1.0000       86.400       3.00000E-02  1.0000     
    113     (1,2534)              5.0500       2.0000       1.00000E-03  136.30       1.0000       86.400       3.00000E-02  1.0000     
    114     (1,2532)              5.0200       2.0000       1.00000E-03  136.30       1.0000       86.400       3.00000E-02  1.0000     
    115     (1,2449)              2.4900       2.0000       1.00000E-03  136.30       1.0000       86.400       3.00000E-02  1.0000     
    116     (1,2448)              3.1600       2.0000       1.00000E-03  136.30       1.0000       86.400       3.00000E-02  1.0000     
    117     (1,2446)              5.9100       2.0000       1.00000E-03  136.28       1.0000       86.400       3.00000E-02  1.0000     
    118     (1,2353)              0.86000      2.0000       1.00000E-03  136.28       1.0000       86.400       3.00000E-02  1.0000     
    119     (1,2350)              5.4600       2.0000       1.00000E-03  136.05       1.0000       86.400       3.00000E-02  1.0000     
    120     (1,2348)              2.9400       2.0000       1.00000E-03  136.05       1.0000       86.400       3.00000E-02  1.0000     
    121     (1,2347)              3.2700       2.0000       1.00000E-03  135.98       1.0000       86.400       3.00000E-02  1.0000     
    122     (1,2271)              4.9500       2.0000       1.00000E-03  135.90       1.0000       86.400       3.00000E-02  1.0000     
    123     (1,2272)              1.1600       2.0000       1.00000E-03  135.90       1.0000       86.400       3.00000E-02  1.0000     
    124     (1,2270)              5.1400       2.0000       1.00000E-03  135.90       1.0000       86.400       3.00000E-02  1.0000     
    125     (1,2273)              5.1400       2.0000       1.00000E-03  135.89       1.0000       86.400       3.00000E-02  1.0000     
    126     (1,2274)              4.2800       2.0000       1.00000E-03  135.89       1.0000       86.400       3.00000E-02  1.0000     
    127     (1,2185)              1.1900       2.0000       1.00000E-03  135.89       1.0000       86.400       3.00000E-02  1.0000     
    128     (1,2188)              5.3500       2.0000       1.00000E-03  135.88       1.0000       86.400       3.00000E-02  1.0000     
    129     (1,2186)              5.2500       2.0000       1.00000E-03  135.64       1.0000       86.400       3.00000E-02  1.0000     
    130     (1,2093)              6.6700       2.0000       1.00000E-03  135.64       1.0000       86.400       3.00000E-02  1.0000     
    131     (1,2090)              5.1400       2.0000       1.00000E-03  135.56       1.0000       86.400       3.00000E-02  1.0000     
    132     (1,2089)              5.3600       2.0000       1.00000E-03  135.56       1.0000       86.400       3.00000E-02  1.0000     
    133     (1,2086)              5.2700       2.0000       1.00000E-03  135.47       1.0000       86.400       3.00000E-02  1.0000     
    134     (1,2085)              2.5100       2.0000       1.00000E-03  135.47       1.0000       86.400       3.00000E-02  1.0000     
    135     (1,2083)              4.9800       2.0000       1.00000E-03  135.44       1.0000       86.400       3.00000E-02  1.0000     
    136     (1,2080)              1.3300       2.0000       1.00000E-03  135.44       1.0000       86.400       3.00000E-02  1.0000     
    137     (1,1971)              5.7500       2.0000       1.00000E-03  135.38       1.0000       86.400       3.00000E-02  1.0000     
    138     (1,1969)              6.1000       2.0000       1.00000E-03  135.36       1.0000       86.400       3.00000E-02  1.0000     
    139     (1,1972)              5.0400       2.0000       1.00000E-03  135.36       1.0000       86.400       3.00000E-02  1.0000     
    140     (1,1973)              5.6400       2.0000       1.00000E-03  135.32       1.0000       86.400       3.00000E-02  1.0000     
    141     (1,1976)              1.5800       2.0000       1.00000E-03  135.32       1.0000       86.400       3.00000E-02  1.0000     
    142     (1,1836)              5.2300       2.0000       1.00000E-03  135.32       1.0000       86.400       3.00000E-02  1.0000     
    143     (1,1831)              0.45000      2.0000       1.00000E-03  135.32       1.0000       86.400       3.00000E-02  1.0000     
    144     (1,1833)              2.8600       2.0000       1.00000E-03  135.32       1.0000       86.400       3.00000E-02  1.0000     
    145     (1,1828)              4.3200       2.0000       1.00000E-03  135.32       1.0000       86.400       3.00000E-02  1.0000     
    146     (1,1684)              1.9800       2.0000       1.00000E-03  135.32       1.0000       86.400       3.00000E-02  1.0000     
    147     (1,1683)              5.2900       2.0000       1.00000E-03  135.32       1.0000       86.400       3.00000E-02  1.0000     
    148     (1,1680)              5.2900       2.0000       1.00000E-03  135.32       1.0000       86.400       3.00000E-02  1.0000     
    149     (1,1679)              1.7500       2.0000       1.00000E-03  135.32       1.0000       86.400       3.00000E-02  1.0000     
    150     (1,1823)              3.8700       2.0000       1.00000E-03  135.28       1.0000       86.400       3.00000E-02  1.0000     
    151     (1,1820)              5.6100       2.0000       1.00000E-03  135.28       1.0000       86.400       3.00000E-02  1.0000     
    152     (1,1822)              5.5300       2.0000       1.00000E-03  135.26       1.0000       86.400       3.00000E-02  1.0000     
    153     (1,1965)              5.2700       2.0000       1.00000E-03  135.26       1.0000       86.400       3.00000E-02  1.0000     
    154     (1,1967)              5.3900       2.0000       1.00000E-03  135.26       1.0000       86.400       3.00000E-02  1.0000     
    155     (1,1966)              5.1900       2.0000       1.00000E-03  135.26       1.0000       86.400       3.00000E-02  1.0000     
    156     (1,1963)              5.4400       2.0000       1.00000E-03  135.21       1.0000       86.400       3.00000E-02  1.0000     
    157     (1,1962)              3.7500       2.0000       1.00000E-03  135.13       1.0000       86.400       3.00000E-02  1.0000     
    158     (1,1960)              2.4400       2.0000       1.00000E-03  135.06       1.0000       86.400       3.00000E-02  1.0000     
    159     (1,1957)              2.5200       2.0000       1.00000E-03  135.01       1.0000       86.400       3.00000E-02  1.0000     
    160     (1,1956)              2.8800       2.0000       1.00000E-03  135.01       1.0000       86.400       3.00000E-02  1.0000     
    161     (1,1953)              2.3200       2.0000       1.00000E-03  135.01       1.0000       86.400       3.00000E-02  1.0000     
    162     (1,1958)              3.4000       2.0000       1.00000E-03  135.01       1.0000       86.400       3.00000E-02  1.0000     
    163     (1,1952)              5.2700       2.0000       1.00000E-03  135.01       1.0000       86.400       3.00000E-02  1.0000     
    164     (1,1951)              5.0500       2.0000       1.00000E-03  135.01       1.0000       86.400       3.00000E-02  1.0000     
    165     (1,1948)              5.0100       2.0000       1.00000E-03  135.01       1.0000       86.400       3.00000E-02  1.0000     
    166     (1,1947)              5.0400       2.0000       1.00000E-03  135.01       1.0000       86.400       3.00000E-02  1.0000     
    167     (1,1944)              5.0600       2.0000       1.00000E-03  135.01       1.0000       86.400       3.00000E-02  1.0000     
    168     (1,1943)              5.0100       2.0000       1.00000E-03  135.01       1.0000       86.400       3.00000E-02  1.0000     
    169     (1,1940)              5.0400       2.0000       1.00000E-03  135.00       1.0000       86.400       3.00000E-02  1.0000     
    170     (1,1939)              5.0900       2.0000       1.00000E-03  134.97       1.0000       86.400       3.00000E-02  1.0000     
    171     (1,1936)              5.1000       2.0000       1.00000E-03  134.97       1.0000       86.400       3.00000E-02  1.0000     
    172     (1,1935)              5.2100       2.0000       1.00000E-03  134.97       1.0000       86.400       3.00000E-02  1.0000     
    173     (1,1932)              2.8200       2.0000       1.00000E-03  134.97       1.0000       86.400       3.00000E-02  1.0000     
    174     (1,1930)              2.6700       2.0000       1.00000E-03  134.90       1.0000       86.400       3.00000E-02  1.0000     
    175     (1,1929)              5.4800       2.0000       1.00000E-03  134.90       1.0000       86.400       3.00000E-02  1.0000     
    176     (1,1926)              3.4100       2.0000       1.00000E-03  134.90       1.0000       86.400       3.00000E-02  1.0000     
    177     (1,1804)              2.3500       2.0000       1.00000E-03  134.89       1.0000       86.400       3.00000E-02  1.0000     
    178     (1,1803)              5.5900       2.0000       1.00000E-03  134.77       1.0000       86.400       3.00000E-02  1.0000     
    179     (1,1800)              3.3400       2.0000       1.00000E-03  134.77       1.0000       86.400       3.00000E-02  1.0000     
    180     (1,1798)              2.4800       2.0000       1.00000E-03  134.77       1.0000       86.400       3.00000E-02  1.0000     
    181     (1,1797)              5.2400       2.0000       1.00000E-03  134.77       1.0000       86.400       3.00000E-02  1.0000     
    182     (1,1794)              3.1200       2.0000       1.00000E-03  134.77       1.0000       86.400       3.00000E-02  1.0000     
    183     (1,1653)              5.0000       2.0000       1.00000E-03  134.77       1.0000       86.400       3.00000E-02  1.0000     
    184     (1,1651)              4.4800       2.0000       1.00000E-03  134.77       1.0000       86.400       3.00000E-02  1.0000     
    185     (1,1654)              2.9100       2.0000       1.00000E-03  134.73       1.0000       86.400       3.00000E-02  1.0000     
    186     (1,1521)              5.2500       2.0000       1.00000E-03  134.72       1.0000       86.400       3.00000E-02  1.0000     
    187     (1,1519)              5.1100       2.0000       1.00000E-03  134.72       1.0000       86.400       3.00000E-02  1.0000     
    188     (1,1394)              5.2200       2.0000       1.00000E-03  134.72       1.0000       86.400       3.00000E-02  1.0000     
    189     (1,1392)              5.2100       2.0000       1.00000E-03  134.71       1.0000       86.400       3.00000E-02  1.0000     
    190     (1,1266)              5.3700       2.0000       1.00000E-03  134.38       1.0000       86.400       3.00000E-02  1.0000     
    191     (1,1264)              4.9400       2.0000       1.00000E-03  134.27       1.0000       86.400       3.00000E-02  1.0000     
    192     (1,1261)              0.71000      2.0000       1.00000E-03  134.27       1.0000       86.400       3.00000E-02  1.0000     
    193     (1,1153)              5.7400       2.0000       1.00000E-03  134.17       1.0000       86.400       3.00000E-02  1.0000     
    194     (1,1151)              3.6400       2.0000       1.00000E-03  134.17       1.0000       86.400       3.00000E-02  1.0000     
    195     (1,1150)              2.0900       2.0000       1.00000E-03  134.17       1.0000       86.400       3.00000E-02  1.0000     
    196     (1,1063)              5.6700       2.0000       1.00000E-03  134.17       1.0000       86.400       3.00000E-02  1.0000     
    197     (1,1061)              5.1500       2.0000       1.00000E-03  134.17       1.0000       86.400       3.00000E-02  1.0000     
    198     (1,968)               1.0800       2.0000       1.00000E-03  134.17       1.0000       86.400       3.00000E-02  1.0000     
    199     (1,965)               1.7200       2.0000       1.00000E-03  134.08       1.0000       86.400       3.00000E-02  1.0000     
    200     (1,963)               2.9900       2.0000       1.00000E-03  134.08       1.0000       86.400       3.00000E-02  1.0000     
    201     (1,960)               3.1600       2.0000       1.00000E-03  134.08       1.0000       86.400       3.00000E-02  1.0000     
    202     (1,959)               4.9100       2.0000       1.00000E-03  134.08       1.0000       86.400       3.00000E-02  1.0000     
    203     (1,878)               2.0500       2.0000       1.00000E-03  134.08       1.0000       86.400       3.00000E-02  1.0000     
    204     (1,875)               4.6500       2.0000       1.00000E-03  134.08       1.0000       86.400       3.00000E-02  1.0000     
    205     (1,873)               3.5200       2.0000       1.00000E-03  134.08       1.0000       86.400       3.00000E-02  1.0000     
    206     (1,872)               3.0200       2.0000       1.00000E-03  134.08       1.0000       86.400       3.00000E-02  1.0000     
    207     (1,794)               4.7600       2.0000       1.00000E-03  134.08       1.0000       86.400       3.00000E-02  1.0000     
    208     (1,791)               1.4600       2.0000       1.00000E-03  134.08       1.0000       86.400       3.00000E-02  1.0000     
    209     (1,789)               6.5400       2.0000       1.00000E-03  134.08       1.0000       86.400       3.00000E-02  1.0000     
    210     (1,712)               7.00000E-02  2.0000       1.00000E-03  134.08       1.0000       86.400       3.00000E-02  1.0000     
    211     (1,711)               6.5900       2.0000       1.00000E-03  134.08       1.0000       86.400       3.00000E-02  1.0000     
    212     (1,709)               0.98000      2.0000       1.00000E-03  134.08       1.0000       86.400       3.00000E-02  1.0000     
    213     (1,706)               5.3700       2.0000       1.00000E-03  134.08       1.0000       86.400       3.00000E-02  1.0000     
    214     (1,630)               2.8000       2.0000       1.00000E-03  133.99       1.0000       86.400       3.00000E-02  1.0000     
    215     (1,629)               3.3500       2.0000       1.00000E-03  133.99       1.0000       86.400       3.00000E-02  1.0000     
    216     (1,627)               4.9500       2.0000       1.00000E-03  133.99       1.0000       86.400       3.00000E-02  1.0000     
    217     (1,624)               2.0900       2.0000       1.00000E-03  133.99       1.0000       86.400       3.00000E-02  1.0000     
    218     (1,549)               5.4200       2.0000       1.00000E-03  133.99       1.0000       86.400       3.00000E-02  1.0000     
    219     (1,547)               3.6300       2.0000       1.00000E-03  133.82       1.0000       86.400       3.00000E-02  1.0000     
    220     (1,546)               5.6500       2.0000       1.00000E-03  133.82       1.0000       86.400       3.00000E-02  1.0000     
    221     (1,543)               9.00000E-02  2.0000       1.00000E-03  133.82       1.0000       86.400       3.00000E-02  1.0000     
    222     (1,469)               6.0300       2.0000       1.00000E-03  133.82       1.0000       86.400       3.00000E-02  1.0000     
    223     (1,467)               5.9300       2.0000       1.00000E-03  133.82       1.0000       86.400       3.00000E-02  1.0000     
    224     (1,394)               2.2500       2.0000       1.00000E-03  133.82       1.0000       86.400       3.00000E-02  1.0000     
    225     (1,393)               5.3700       2.0000       1.00000E-03  133.82       1.0000       86.400       3.00000E-02  1.0000     
    226     (1,390)               5.1500       2.0000       1.00000E-03  133.82       1.0000       86.400       3.00000E-02  1.0000     
    227     (1,389)               5.3200       2.0000       1.00000E-03  133.82       1.0000       86.400       3.00000E-02  1.0000     
    228     (1,387)               0.93000      2.0000       1.00000E-03  133.82       1.0000       86.400       3.00000E-02  1.0000     
    229     (1,384)               6.0100       2.0000       1.00000E-03  133.82       1.0000       86.400       3.00000E-02  1.0000     
    230     (1,383)               1.8900       2.0000       1.00000E-03  133.82       1.0000       86.400       3.00000E-02  1.0000     
    231     (1,302)               4.0600       2.0000       1.00000E-03  133.82       1.0000       86.400       3.00000E-02  1.0000     
    232     (1,299)               5.2500       2.0000       1.00000E-03  133.82       1.0000       86.400       3.00000E-02  1.0000     
    233     (1,297)               0.69000      2.0000       1.00000E-03  133.82       1.0000       86.400       3.00000E-02  1.0000     
    234     (1,296)               5.3300       2.0000       1.00000E-03  133.82       1.0000       86.400       3.00000E-02  1.0000     
    235     (1,293)               5.1200       2.0000       1.00000E-03  133.82       1.0000       86.400       3.00000E-02  1.0000     
    236     (1,292)               5.2600       2.0000       1.00000E-03  133.82       1.0000       86.400       3.00000E-02  1.0000     
    237     (1,289)               0.66000      2.0000       1.00000E-03  133.82       1.0000       86.400       3.00000E-02  1.0000     
    238     (1,250)               4.5700       2.0000       1.00000E-03  133.82       1.0000       86.400       3.00000E-02  1.0000     
    239     (1,249)               5.6700       2.0000       1.00000E-03  133.82       1.0000       86.400       3.00000E-02  1.0000     
    240     (1,246)               2.2400       2.0000       1.00000E-03  133.59       1.0000       86.400       3.00000E-02  1.0000     
    241     (1,244)               3.7300       2.0000       1.00000E-03  133.51       1.0000       86.400       3.00000E-02  1.0000     
    242     (1,243)               4.5500       2.0000       1.00000E-03  133.28       1.0000       86.400       3.00000E-02  1.0000     
    243     (1,209)               2.3300       2.0000       1.00000E-03  133.28       1.0000       86.400       3.00000E-02  1.0000     
    244     (1,206)               4.7400       2.0000       1.00000E-03  133.28       1.0000       86.400       3.00000E-02  1.0000     
    245     (1,204)               2.3300       2.0000       1.00000E-03  133.28       1.0000       86.400       3.00000E-02  1.0000     
    246     (1,203)               4.7400       2.0000       1.00000E-03  133.28       1.0000       86.400       3.00000E-02  1.0000     
    247     (1,171)               2.3100       2.0000       1.00000E-03  133.28       1.0000       86.400       3.00000E-02  1.0000     
    248     (1,168)               5.8900       2.0000       1.00000E-03  133.28       1.0000       86.400       3.00000E-02  1.0000     
    249     (1,166)               0.33000      2.0000       1.00000E-03  133.28       1.0000       86.400       3.00000E-02  1.0000     
    250     (1,165)               6.7400       2.0000       1.00000E-03  133.28       1.0000       86.400       3.00000E-02  1.0000     
    251     (1,135)               0.33000      2.0000       1.00000E-03  133.28       1.0000       86.400       3.00000E-02  1.0000     
    252     (1,132)               6.7400       2.0000       1.00000E-03  133.28       1.0000       86.400       3.00000E-02  1.0000     
    253     (1,130)               0.33000      2.0000       1.00000E-03  133.28       1.0000       86.400       3.00000E-02  1.0000     
    254     (1,129)               6.7400       2.0000       1.00000E-03  133.28       1.0000       86.400       3.00000E-02  1.0000     
    255     (1,101)               0.33000      2.0000       1.00000E-03  133.28       1.0000       86.400       3.00000E-02  1.0000     
    256     (1,98)                6.7400       2.0000       1.00000E-03  133.28       1.0000       86.400       3.00000E-02  1.0000     
    257     (1,96)                0.33000      2.0000       1.00000E-03  133.28       1.0000       86.400       3.00000E-02  1.0000     
    258     (1,95)                6.7400       2.0000       1.00000E-03  133.28       1.0000       86.400       3.00000E-02  1.0000     
    259     (1,69)                0.33000      2.0000       1.00000E-03  133.28       1.0000       86.400       3.00000E-02  1.0000     
    260     (1,66)                6.8200       2.0000       1.00000E-03  133.28       1.0000       86.400       3.00000E-02  1.0000     
    261     (1,65)                0.28000      2.0000       1.00000E-03  133.28       1.0000       86.400       3.00000E-02  1.0000     
    262     (1,63)                6.1400       2.0000       1.00000E-03  133.27       1.0000       86.400       3.00000E-02  1.0000     
    263     (1,60)                1.6700       2.0000       1.00000E-03  133.27       1.0000       86.400       3.00000E-02  1.0000     
    264     (1,36)                5.4100       2.0000       1.00000E-03  133.15       1.0000       86.400       3.00000E-02  1.0000     
    265     (1,35)                2.0700       2.0000       1.00000E-03  133.15       1.0000       86.400       3.00000E-02  1.0000     
    266     (1,33)                4.1000       2.0000       1.00000E-03  133.15       1.0000       86.400       3.00000E-02  1.0000     
    267     (1,30)                3.6700       2.0000       1.00000E-03  133.15       1.0000       86.400       3.00000E-02  1.0000     
    268     (1,8)                 3.4100       2.0000       1.00000E-03  133.15       1.0000       86.400       3.00000E-02  1.0000     
    269     (1,7)                 3.6700       2.0000       1.00000E-03  133.15       1.0000       86.400       3.00000E-02  1.0000     
    270     (1,5)                 0.40000      2.0000       1.00000E-03  133.15       1.0000       86.400       3.00000E-02  1.0000     
 ---------------------------------------------------------------------------------------------------------------------------------------



 SFR PACKAGE (SFR) STATIC REACH CONNECTION DATA
 --------------------------------
   REACH      CONN 1     CONN 2  
 --------------------------------
     1          2                
     2          1          3     
     3          2          4     
     4          3          5     
     5          4          6     
     6          5          7     
     7          6          8     
     8          7          9     
     9          8          10    
     10         9          11    
     11         10         12    
     12         11         13    
     13         12         14    
     14         13         15    
     15         14         16    
     16         15         17    
     17         16         18    
     18         17         19    
     19         18         20    
     20         19         21    
     21         20         22    
     22         21         23    
     23         22         24    
     24         23         25    
     25         24         26    
     26         25         27    
     27         26         28    
     28         27         29    
     29         28         30    
     30         29         31    
     31         30         32    
     32         31         33    
     33         32         34    
     34         33         35    
     35         34         36    
     36         35         37    
     37         36         38    
     38         37         39    
     39         38         40    
     40         39         41    
     41         40         42    
     42         41         43    
     43         42         44    
     44         43         45    
     45         44         46    
     46         45         47    
     47         46         48    
     48         47         49    
     49         48         50    
     50         49         51    
     51         50         52    
     52         51         53    
     53         52         54    
     54         53         55    
     55         54         56    
     56         55         57    
     57         56         58    
     58         57         59    
     59         58         60    
     60         59         61    
     61         60         62    
     62         61         63    
     63         62         64    
     64         63         65    
     65         64         66    
     66         65         67    
     67         66         68    
     68         67         69    
     69         68         70    
     70         69         71    
     71         70         72    
     72         71         73    
     73         72         74    
     74         73         75    
     75         74         76    
     76         75         77    
     77         76         78    
     78         77         79    
     79         78         80    
     80         79         81    
     81         80         82    
     82         81         83    
     83         82         84    
     84         83         85    
     85         84         86    
     86         85         87    
     87         86         88    
     88         87         89    
     89         88         90    
     90         89         91    
     91         90         92    
     92         91         93    
     93         92         94    
     94         93         95    
     95         94         96    
     96         95         97    
     97         96         98    
     98         97         99    
     99         98        100    
    100         99        101    
    101        100        102    
    102        101        103    
    103        102        104    
    104        103        105    
    105        104        106    
    106        105        107    
    107        106        108    
    108        107        109    
    109        108        110    
    110        109        111    
    111        110        112    
    112        111        113    
    113        112        114    
    114        113        115    
    115        114        116    
    116        115        117    
    117        116        118    
    118        117        119    
    119        118        120    
    120        119        121    
    121        120        122    
    122        121        123    
    123        122        124    
    124        123        125    
    125        124        126    
    126        125        127    
    127        126        128    
    128        127        129    
    129        128        130    
    130        129        131    
    131        130        132    
    132        131        133    
    133        132        134    
    134        133        135    
    135        134        136    
    136        135        137    
    137        136        138    
    138        137        139    
    139        138        140    
    140        139        141    
    141        140        142    
    142        141        143    
    143        142        144    
    144        143        145    
    145        144        146    
    146        145        147    
    147        146        148    
    148        147        149    
    149        148        150    
    150        149        151    
    151        150        152    
    152        151        153    
    153        152        154    
    154        153        155    
    155        154        156    
    156        155        157    
    157        156        158    
    158        157        159    
    159        158        160    
    160        159        161    
    161        160        162    
    162        161        163    
    163        162        164    
    164        163        165    
    165        164        166    
    166        165        167    
    167        166        168    
    168        167        169    
    169        168        170    
    170        169        171    
    171        170        172    
    172        171        173    
    173        172        174    
    174        173        175    
    175        174        176    
    176        175        177    
    177        176        178    
    178        177        179    
    179        178        180    
    180        179        181    
    181        180        182    
    182        181        183    
    183        182        184    
    184        183        185    
    185        184        186    
    186        185        187    
    187        186        188    
    188        187        189    
    189        188        190    
    190        189        191    
    191        190        192    
    192        191        193    
    193        192        194    
    194        193        195    
    195        194        196    
    196        195        197    
    197        196        198    
    198        197        199    
    199        198        200    
    200        199        201    
    201        200        202    
    202        201        203    
    203        202        204    
    204        203        205    
    205        204        206    
    206        205        207    
    207        206        208    
    208        207        209    
    209        208        210    
    210        209        211    
    211        210        212    
    212        211        213    
    213        212        214    
    214        213        215    
    215        214        216    
    216        215        217    
    217        216        218    
    218        217        219    
    219        218        220    
    220        219        221    
    221        220        222    
    222        221        223    
    223        222        224    
    224        223        225    
    225        224        226    
    226        225        227    
    227        226        228    
    228        227        229    
    229        228        230    
    230        229        231    
    231        230        232    
    232        231        233    
    233        232        234    
    234        233        235    
    235        234        236    
    236        235        237    
    237        236        238    
    238        237        239    
    239        238        240    
    240        239        241    
    241        240        242    
    242        241        243    
    243        242        244    
    244        243        245    
    245        244        246    
    246        245        247    
    247        246        248    
    248        247        249    
    249        248        250    
    250        249        251    
    251        250        252    
    252        251        253    
    253        252        254    
    254        253        255    
    255        254        256    
    256        255        257    
    257        256        258    
    258        257        259    
    259        258        260    
    260        259        261    
    261        260        262    
    262        261        263    
    263        262        264    
    264        263        265    
    265        264        266    
    266        265        267    
    267        266        268    
    268        267        269    
    269        268        270    
    270        269               
 --------------------------------



 SFR PACKAGE (SFR) STATIC UPSTREAM REACH CONNECTION DATA
 ---------------------
             UPSTREAM 
   REACH      CONN 1  
 ---------------------
     1                
     2          1     
     3          2     
     4          3     
     5          4     
     6          5     
     7          6     
     8          7     
     9          8     
     10         9     
     11         10    
     12         11    
     13         12    
     14         13    
     15         14    
     16         15    
     17         16    
     18         17    
     19         18    
     20         19    
     21         20    
     22         21    
     23         22    
     24         23    
     25         24    
     26         25    
     27         26    
     28         27    
     29         28    
     30         29    
     31         30    
     32         31    
     33         32    
     34         33    
     35         34    
     36         35    
     37         36    
     38         37    
     39         38    
     40         39    
     41         40    
     42         41    
     43         42    
     44         43    
     45         44    
     46         45    
     47         46    
     48         47    
     49         48    
     50         49    
     51         50    
     52         51    
     53         52    
     54         53    
     55         54    
     56         55    
     57         56    
     58         57    
     59         58    
     60         59    
     61         60    
     62         61    
     63         62    
     64         63    
     65         64    
     66         65    
     67         66    
     68         67    
     69         68    
     70         69    
     71         70    
     72         71    
     73         72    
     74         73    
     75         74    
     76         75    
     77         76    
     78         77    
     79         78    
     80         79    
     81         80    
     82         81    
     83         82    
     84         83    
     85         84    
     86         85    
     87         86    
     88         87    
     89         88    
     90         89    
     91         90    
     92         91    
     93         92    
     94         93    
     95         94    
     96         95    
     97         96    
     98         97    
     99         98    
    100         99    
    101        100    
    102        101    
    103        102    
    104        103    
    105        104    
    106        105    
    107        106    
    108        107    
    109        108    
    110        109    
    111        110    
    112        111    
    113        112    
    114        113    
    115        114    
    116        115    
    117        116    
    118        117    
    119        118    
    120        119    
    121        120    
    122        121    
    123        122    
    124        123    
    125        124    
    126        125    
    127        126    
    128        127    
    129        128    
    130        129    
    131        130    
    132        131    
    133        132    
    134        133    
    135        134    
    136        135    
    137        136    
    138        137    
    139        138    
    140        139    
    141        140    
    142        141    
    143        142    
    144        143    
    145        144    
    146        145    
    147        146    
    148        147    
    149        148    
    150        149    
    151        150    
    152        151    
    153        152    
    154        153    
    155        154    
    156        155    
    157        156    
    158        157    
    159        158    
    160        159    
    161        160    
    162        161    
    163        162    
    164        163    
    165        164    
    166        165    
    167        166    
    168        167    
    169        168    
    170        169    
    171        170    
    172        171    
    173        172    
    174        173    
    175        174    
    176        175    
    177        176    
    178        177    
    179        178    
    180        179    
    181        180    
    182        181    
    183        182    
    184        183    
    185        184    
    186        185    
    187        186    
    188        187    
    189        188    
    190        189    
    191        190    
    192        191    
    193        192    
    194        193    
    195        194    
    196        195    
    197        196    
    198        197    
    199        198    
    200        199    
    201        200    
    202        201    
    203        202    
    204        203    
    205        204    
    206        205    
    207        206    
    208        207    
    209        208    
    210        209    
    211        210    
    212        211    
    213        212    
    214        213    
    215        214    
    216        215    
    217        216    
    218        217    
    219        218    
    220        219    
    221        220    
    222        221    
    223        222    
    224        223    
    225        224    
    226        225    
    227        226    
    228        227    
    229        228    
    230        229    
    231        230    
    232        231    
    233        232    
    234        233    
    235        234    
    236        235    
    237        236    
    238        237    
    239        238    
    240        239    
    241        240    
    242        241    
    243        242    
    244        243    
    245        244    
    246        245    
    247        246    
    248        247    
    249        248    
    250        249    
    251        250    
    252        251    
    253        252    
    254        253    
    255        254    
    256        255    
    257        256    
    258        257    
    259        258    
    260        259    
    261        260    
    262        261    
    263        262    
    264        263    
    265        264    
    266        265    
    267        266    
    268        267    
    269        268    
    270        269    
 ---------------------



 SFR PACKAGE (SFR) STATIC DOWNSTREAM REACH CONNECTION DATA
 ---------------------
            DOWNSTREAM
   REACH      CONN 1  
 ---------------------
     1          2     
     2          3     
     3          4     
     4          5     
     5          6     
     6          7     
     7          8     
     8          9     
     9          10    
     10         11    
     11         12    
     12         13    
     13         14    
     14         15    
     15         16    
     16         17    
     17         18    
     18         19    
     19         20    
     20         21    
     21         22    
     22         23    
     23         24    
     24         25    
     25         26    
     26         27    
     27         28    
     28         29    
     29         30    
     30         31    
     31         32    
     32         33    
     33         34    
     34         35    
     35         36    
     36         37    
     37         38    
     38         39    
     39         40    
     40         41    
     41         42    
     42         43    
     43         44    
     44         45    
     45         46    
     46         47    
     47         48    
     48         49    
     49         50    
     50         51    
     51         52    
     52         53    
     53         54    
     54         55    
     55         56    
     56         57    
     57         58    
     58         59    
     59         60    
     60         61    
     61         62    
     62         63    
     63         64    
     64         65    
     65         66    
     66         67    
     67         68    
     68         69    
     69         70    
     70         71    
     71         72    
     72         73    
     73         74    
     74         75    
     75         76    
     76         77    
     77         78    
     78         79    
     79         80    
     80         81    
     81         82    
     82         83    
     83         84    
     84         85    
     85         86    
     86         87    
     87         88    
     88         89    
     89         90    
     90         91    
     91         92    
     92         93    
     93         94    
     94         95    
     95         96    
     96         97    
     97         98    
     98         99    
     99        100    
    100        101    
    101        102    
    102        103    
    103        104    
    104        105    
    105        106    
    106        107    
    107        108    
    108        109    
    109        110    
    110        111    
    111        112    
    112        113    
    113        114    
    114        115    
    115        116    
    116        117    
    117        118    
    118        119    
    119        120    
    120        121    
    121        122    
    122        123    
    123        124    
    124        125    
    125        126    
    126        127    
    127        128    
    128        129    
    129        130    
    130        131    
    131        132    
    132        133    
    133        134    
    134        135    
    135        136    
    136        137    
    137        138    
    138        139    
    139        140    
    140        141    
    141        142    
    142        143    
    143        144    
    144        145    
    145        146    
    146        147    
    147        148    
    148        149    
    149        150    
    150        151    
    151        152    
    152        153    
    153        154    
    154        155    
    155        156    
    156        157    
    157        158    
    158        159    
    159        160    
    160        161    
    161        162    
    162        163    
    163        164    
    164        165    
    165        166    
    166        167    
    167        168    
    168        169    
    169        170    
    170        171    
    171        172    
    172        173    
    173        174    
    174        175    
    175        176    
    176        177    
    177        178    
    178        179    
    179        180    
    180        181    
    181        182    
    182        183    
    183        184    
    184        185    
    185        186    
    186        187    
    187        188    
    188        189    
    189        190    
    190        191    
    191        192    
    192        193    
    193        194    
    194        195    
    195        196    
    196        197    
    197        198    
    198        199    
    199        200    
    200        201    
    201        202    
    202        203    
    203        204    
    204        205    
    205        206    
    206        207    
    207        208    
    208        209    
    209        210    
    210        211    
    211        212    
    212        213    
    213        214    
    214        215    
    215        216    
    216        217    
    217        218    
    218        219    
    219        220    
    220        221    
    221        222    
    222        223    
    223        224    
    224        225    
    225        226    
    226        227    
    227        228    
    228        229    
    229        230    
    230        231    
    231        232    
    232        233    
    233        234    
    234        235    
    235        236    
    236        237    
    237        238    
    238        239    
    239        240    
    240        241    
    241        242    
    242        243    
    243        244    
    244        245    
    245        246    
    246        247    
    247        248    
    248        249    
    249        250    
    250        251    
    251        252    
    252        253    
    253        254    
    254        255    
    255        256    
    256        257    
    257        258    
    258        259    
    259        260    
    260        261    
    261        262    
    262        263    
    263        264    
    264        265    
    265        266    
    266        267    
    267        268    
    268        269    
    269        270    
    270               
 ---------------------



start timestep kper="1" kstp="1" mode="normal"


 BEGIN READING OUTPUT CONTROL FOR STRESS PERIOD 1
      ALL TIME STEPS WILL BE SAVED
      ALL TIME STEPS WILL BE SAVED
      THE FIRST TIME STEP WILL BE PRINTED
      THE LAST TIME STEP WILL BE PRINTED
      THE LAST TIME STEP WILL BE PRINTED

 END READING OUTPUT CONTROL FOR STRESS PERIOD 1


 PROCESSING STORAGE PERIOD DATA
 END PROCESSING STORAGE PERIOD DATA


 STRESS PERIOD 1 IS STEADY-STATE

 -----------------------------------------------------------------------------------------------------
  GHB NO.    LAYER  CELL2D       STAGE         CONDUCTANCE    BOUNDNAME                               
 -----------------------------------------------------------------------------------------------------
     1         1      842    142.500000       86.4000000      RED                                     
     2         1      928    142.500000       86.4000000      RED                                     
     3         1     1026    142.500000       86.4000000      RED                                     
     4         1     1118    142.500000       86.4000000      RED                                     
     5         1     1225    142.500000       86.4000000      RED                                     
     6         1     1350    142.500000       86.4000000      RED                                     
     7         1     1487    142.500000       86.4000000      RED                                     
     8         1     1620    142.500000       86.4000000      RED                                     
     9         1     1764    142.500000       86.4000000      RED                                     
     10        1     1895    142.500000       86.4000000      RED                                     
     11        1     2040    142.500000       86.4000000      RED                                     
     12        1     2139    142.500000       86.4000000      RED                                     
     13        1     2222    142.500000       86.4000000      RED                                     
     14        1     2310    142.500000       86.4000000      RED                                     
     15        1     2394    142.500000       86.4000000      RED                                     
     16        1     2480    142.500000       86.4000000      RED                                     
     17        1     2565    142.500000       86.4000000      RED                                     
     18        1     2667    142.500000       86.4000000      RED                                     
     19        1     2822    142.500000       86.4000000      RED                                     
     20        1     2979    142.500000       86.4000000      RED                                     
     21        1     3096    142.500000       86.4000000      RED                                     
     22        1     3209    142.500000       86.4000000      RED                                     
     23        1     3210    142.500000       86.4000000      RED                                     
     24        1     3283    142.500000       86.4000000      RED                                     
     25        1     3352    142.500000       86.4000000      RED                                     
     26        1     3432    142.500000       86.4000000      RED                                     
     27        1      440    143.000000       86.4000000      ORANGERED                               
     28        1      516    143.000000       86.4000000      ORANGERED                               
     29        1      596    143.000000       86.4000000      ORANGERED                               
     30        1      677    143.000000       86.4000000      ORANGERED                               
     31        1      759    143.000000       86.4000000      ORANGERED                               
     32        1      315    137.500000       86.4000000      ORANGE                                  
     33        1      316    137.500000       86.4000000      ORANGE                                  
     34        1      317    137.500000       86.4000000      ORANGE                                  
     35        1      318    137.500000       86.4000000      ORANGE                                  
     36        1      319    137.500000       86.4000000      ORANGE                                  
     37        1      320    137.500000       86.4000000      ORANGE                                  
     38        1      321    137.500000       86.4000000      ORANGE                                  
     39        1      322    137.500000       86.4000000      ORANGE                                  
     40        1      323    137.500000       86.4000000      ORANGE                                  
     41        1      324    137.500000       86.4000000      ORANGE                                  
     42        1      325    137.500000       86.4000000      ORANGE                                  
     43        1      326    137.500000       86.4000000      ORANGE                                  
     44        1      327    137.500000       86.4000000      ORANGE                                  
     45        1      328    137.500000       86.4000000      ORANGE                                  
     46        1      329    137.500000       86.4000000      ORANGE                                  
     47        1      330    137.500000       86.4000000      ORANGE                                  
     48        1      331    137.500000       86.4000000      ORANGE                                  
     49        1      332    137.500000       86.4000000      ORANGE                                  
     50        1      333    137.500000       86.4000000      ORANGE                                  
     51        1      334    137.500000       86.4000000      ORANGE                                  
     52        1      335    137.500000       86.4000000      ORANGE                                  
     53        1      336    137.500000       86.4000000      ORANGE                                  
     54        1      337    137.500000       86.4000000      ORANGE                                  
     55        1      338    137.693893       86.4000000      ORANGE                                  
     56        1      339    137.912094       86.4000000      ORANGE                                  
     57        1      340    137.988297       86.4000000      ORANGE                                  
     58        1      341    137.979095       86.4000000      ORANGE                                  
     59        1      342    137.994705       86.4000000      ORANGE                                  
     60        1      343    138.170303       86.4000000      ORANGE                                  
     61        1      344    138.331497       86.4000000      ORANGE                                  
     62        1      345    138.308304       86.4000000      ORANGE                                  
     63        1      346    138.457901       86.4000000      ORANGE                                  
     64        1      347    138.635498       86.4000000      ORANGE                                  
     65        1      348    138.630798       86.4000000      ORANGE                                  
     66        1      349    138.478806       86.4000000      ORANGE                                  
     67        1      350    138.828003       86.4000000      ORANGE                                  
     68        1      51     135.500000       86.4000000      GOLD                                    
     69        1      84     135.500000       86.4000000      GOLD                                    
     70        1      116    135.500000       86.4000000      GOLD                                    
     71        1      150    135.500000       86.4000000      GOLD                                    
     72        1      186    135.500000       86.4000000      GOLD                                    
     73        1      224    135.500000       86.4000000      GOLD                                    
     74        1      264    135.500000       86.4000000      GOLD                                    
     75        1       1     134.500000       86.4000000      YELLOWGREEN                             
     76        1       2     134.500000       86.4000000      YELLOWGREEN                             
     77        1       3     134.500000       86.4000000      YELLOWGREEN                             
     78        1       4     134.500000       86.4000000      YELLOWGREEN                             
     79        1       5     134.500000       86.4000000      YELLOWGREEN                             
     80        1       6     134.500000       86.4000000      YELLOWGREEN                             
     81        1       9     134.500000       86.4000000      YELLOWGREEN                             
     82        1      10     134.500000       86.4000000      YELLOWGREEN                             
     83        1      11     134.500000       86.4000000      YELLOWGREEN                             
     84        1      12     134.500000       86.4000000      YELLOWGREEN                             
     85        1      13     134.500000       86.4000000      YELLOWGREEN                             
     86        1      14     134.500000       86.4000000      YELLOWGREEN                             
     87        1      15     134.500000       86.4000000      YELLOWGREEN                             
     88        1      16     134.500000       86.4000000      YELLOWGREEN                             
     89        1      17     134.500000       86.4000000      YELLOWGREEN                             
     90        1      18     134.500000       86.4000000      YELLOWGREEN                             
     91        1      19     134.500000       86.4000000      YELLOWGREEN                             
     92        1      20     134.500000       86.4000000      YELLOWGREEN                             
     93        1      21     134.500000       86.4000000      YELLOWGREEN                             
     94        1      22     134.500000       86.4000000      YELLOWGREEN                             
     95        1      23     134.500000       86.4000000      YELLOWGREEN                             
     96        1      52     133.600000       86.4000000      LIMEGREEN                               
     97        1      85     133.600000       86.4000000      LIMEGREEN                               
     98        1      117    133.600000       86.4000000      LIMEGREEN                               
     99        1      151    133.600000       86.4000000      LIMEGREEN                               
    100        1      187    133.600000       86.4000000      LIMEGREEN                               
    101        1      265    133.200000       86.4000000      AQUA                                    
    102        1      351    133.200000       86.4000000      AQUA                                    
    103        1      441    133.200000       86.4000000      AQUA                                    
    104        1      517    133.200000       86.4000000      AQUA                                    
    105        1      597    133.200000       86.4000000      AQUA                                    
    106        1      678    133.200000       86.4000000      AQUA                                    
    107        1      760    133.200000       86.4000000      AQUA                                    
    108        1      843    133.200000       86.4000000      AQUA                                    
    109        1      929    133.200000       86.4000000      AQUA                                    
    110        1     1027    133.200000       86.4000000      AQUA                                    
    111        1     1119    133.200000       86.4000000      AQUA                                    
    112        1     1226    133.200000       86.4000000      AQUA                                    
    113        1     1351    133.200000       86.4000000      AQUA                                    
    114        1     1621    133.200000       86.4000000      DARKTURQUOISE                           
    115        1     1765    133.200000       86.4000000      DARKTURQUOISE                           
    116        1     1896    133.200000       86.4000000      DARKTURQUOISE                           
    117        1     2041    133.200000       86.4000000      DARKTURQUOISE                           
    118        1     2140    133.200000       86.4000000      DARKTURQUOISE                           
    119        1     2223    133.200000       86.4000000      DARKTURQUOISE                           
    120        1     2311    133.200000       86.4000000      DARKTURQUOISE                           
    121        1     2395    133.200000       86.4000000      DARKTURQUOISE                           
    122        1     2481    133.200000       86.4000000      DARKTURQUOISE                           
    123        1     2566    133.200000       86.4000000      DARKTURQUOISE                           
    124        1     2668    133.200000       86.4000000      DARKTURQUOISE                           
    125        1     2823    133.200000       86.4000000      DARKTURQUOISE                           
    126        1     2980    133.200000       86.4000000      DARKTURQUOISE                           
    127        1     3097    133.200000       86.4000000      DARKTURQUOISE                           
    128        1     3211    133.200000       86.4000000      DARKTURQUOISE                           
    129        1     3284    133.200000       86.4000000      DARKTURQUOISE                           
    130        1     3353    133.200000       86.4000000      DARKTURQUOISE                           
    131        1     3433    133.200000       86.4000000      DARKTURQUOISE                           
    132        1     3504    133.200000       86.4000000      DARKTURQUOISE                           
    133        1     3569    133.200000       86.4000000      DARKTURQUOISE                           
    134        1     3619    133.200000       86.4000000      DARKTURQUOISE                           
    135        1     3666    133.200000       86.4000000      DARKTURQUOISE                           
    136        1     3709    133.462006       86.4000000      DARKTURQUOISE                           
    137        1     3745    134.633896       86.4000000      DARKTURQUOISE                           
    138        1     3774    136.711899       86.4000000      ROYALBLUE                               
    139        1     3775    137.495697       86.4000000      ROYALBLUE                               
    140        1     3776    138.313507       86.4000000      ROYALBLUE                               
    141        1     3777    139.249405       86.4000000      ROYALBLUE                               
    142        1     3778    139.835693       86.4000000      ROYALBLUE                               
    143        1     3779    140.728104       86.4000000      ROYALBLUE                               
    144        1     3780    141.188797       86.4000000      ROYALBLUE                               
    145        1     3781    141.609802       86.4000000      ROYALBLUE                               
    146        1     3782    141.910904       86.4000000      ROYALBLUE                               
    147        1     3783    142.142197       86.4000000      ROYALBLUE                               
    148        1     3760    141.270401       86.4000000      BLUE                                    
    149        1     3773    142.113602       86.4000000      BLUE                                    
    150        1     3726    140.132797       86.4000000      BLUEVIOLET                              
    151        1     3727    139.932907       86.4000000      BLUEVIOLET                              
    152        1     3728    139.604294       86.4000000      BLUEVIOLET                              
    153        1     3729    139.418594       86.4000000      BLUEVIOLET                              
    154        1     3730    139.438400       86.4000000      BLUEVIOLET                              
    155        1     3731    139.939697       86.4000000      BLUEVIOLET                              
    156        1     3732    139.788803       86.4000000      BLUEVIOLET                              
    157        1     3733    139.730103       86.4000000      BLUEVIOLET                              
    158        1     3734    139.743195       86.4000000      BLUEVIOLET                              
    159        1     3735    139.697495       86.4000000      BLUEVIOLET                              
    160        1     3736    139.811005       86.4000000      BLUEVIOLET                              
    161        1     3737    139.843201       86.4000000      BLUEVIOLET                              
    162        1     3738    139.720398       86.4000000      BLUEVIOLET                              
    163        1     3739    139.802704       86.4000000      BLUEVIOLET                              
    164        1     3740    139.727707       86.4000000      BLUEVIOLET                              
    165        1     3741    139.958694       86.4000000      BLUEVIOLET                              
    166        1     3742    140.352707       86.4000000      BLUEVIOLET                              
    167        1     3743    140.726395       86.4000000      BLUEVIOLET                              
    168        1     3744    140.822693       86.4000000      BLUEVIOLET                              
    169        1     3703    141.222198       86.4000000      PURPLE                                  
    170        1     3704    142.104996       86.4000000      PURPLE                                  
    171        1     3705    142.760498       86.4000000      PURPLE                                  
    172        1     3706    143.357895       86.4000000      PURPLE                                  
    173        1     3707    143.709702       86.4000000      PURPLE                                  
    174        1     3708    144.099106       86.4000000      PURPLE                                  
    175        1     3663    143.393707       86.4000000      MEDIUMVIOLETRED                         
    176        1     3664    143.648804       86.4000000      MEDIUMVIOLETRED                         
    177        1     3665    143.819107       86.4000000      MEDIUMVIOLETRED                         
    178        1     3503    140.385696       86.4000000      CRIMSON                                 
    179        1     3568    141.427597       86.4000000      CRIMSON                                 
    180        1     3618    142.584702       86.4000000      CRIMSON                                 
 -----------------------------------------------------------------------------------------------------


 -------------------------------------------
  RCH NO.    LAYER  CELL2D      RECHARGE    
 -------------------------------------------
     1         1       7     5.479452050E-04
     2         1       8     5.479452050E-04
     3         1      24     5.479452050E-04
     4         1      25     5.479452050E-04
     5         1      26     5.479452050E-04
     6         1      27     5.479452050E-04
     7         1      28     5.479452050E-04
     8         1      29     5.479452050E-04
     9         1      30     5.479452050E-04
     10        1      31     5.479452050E-04
     11        1      32     5.479452050E-04
     12        1      33     5.479452050E-04
     13        1      34     5.479452050E-04
     14        1      35     5.479452050E-04
     15        1      36     5.479452050E-04
     16        1      37     5.479452050E-04
     17        1      38     5.479452050E-04
     18        1      39     5.479452050E-04
     19        1      40     5.479452050E-04
     20        1      41     5.479452050E-04
     21        1      42     5.479452050E-04
     22        1      43     5.479452050E-04
     23        1      44     5.479452050E-04
     24        1      45     5.479452050E-04
     25        1      46     5.479452050E-04
     26        1      47     5.479452050E-04
     27        1      48     5.479452050E-04
     28        1      49     5.479452050E-04
     29        1      50     5.479452050E-04
     30        1      53     5.479452050E-04
     31        1      54     5.479452050E-04
     32        1      55     5.479452050E-04
     33        1      56     5.479452050E-04
     34        1      57     5.479452050E-04
     35        1      58     5.479452050E-04
     36        1      59     5.479452050E-04
     37        1      60     5.479452050E-04
     38        1      61     5.479452050E-04
     39        1      62     5.479452050E-04
     40        1      63     5.479452050E-04
     41        1      64     5.479452050E-04
     42        1      65     5.479452050E-04
     43        1      66     5.479452050E-04
     44        1      67     5.479452050E-04
     45        1      68     5.479452050E-04
     46        1      69     5.479452050E-04
     47        1      70     5.479452050E-04
     48        1      71     5.479452050E-04
     49        1      72     5.479452050E-04
     50        1      73     5.479452050E-04
     51        1      74     5.479452050E-04
     52        1      75     5.479452050E-04
     53        1      76     5.479452050E-04
     54        1      77     5.479452050E-04
     55        1      78     5.479452050E-04
     56        1      79     5.479452050E-04
     57        1      80     5.479452050E-04
     58        1      81     5.479452050E-04
     59        1      82     5.479452050E-04
     60        1      83     5.479452050E-04
     61        1      86     5.479452050E-04
     62        1      87     5.479452050E-04
     63        1      88     5.479452050E-04
     64        1      89     5.479452050E-04
     65        1      90     5.479452050E-04
     66        1      91     5.479452050E-04
     67        1      92     5.479452050E-04
     68        1      93     5.479452050E-04
     69        1      94     5.479452050E-04
     70        1      95     5.479452050E-04
     71        1      96     5.479452050E-04
     72        1      97     5.479452050E-04
     73        1      98     5.479452050E-04
     74        1      99     5.479452050E-04
     75        1      100    5.479452050E-04
     76        1      101    5.479452050E-04
     77        1      102    5.479452050E-04
     78        1      103    5.479452050E-04
     79        1      104    5.479452050E-04
     80        1      105    5.479452050E-04
     81        1      106    5.479452050E-04
     82        1      107    5.479452050E-04
     83        1      108    5.479452050E-04
     84        1      109    5.479452050E-04
     85        1      110    5.479452050E-04
     86        1      111    5.479452050E-04
     87        1      112    5.479452050E-04
     88        1      113    5.479452050E-04
     89        1      114    5.479452050E-04
     90        1      115    5.479452050E-04
     91        1      118    5.479452050E-04
     92        1      119    5.479452050E-04
     93        1      120    5.479452050E-04
     94        1      121    5.479452050E-04
     95        1      122    5.479452050E-04
     96        1      123    5.479452050E-04
     97        1      124    5.479452050E-04
     98        1      125    5.479452050E-04
     99        1      126    5.479452050E-04
    100        1      127    5.479452050E-04
    101        1      128    5.479452050E-04
    102        1      129    5.479452050E-04
    103        1      130    5.479452050E-04
    104        1      131    5.479452050E-04
    105        1      132    5.479452050E-04
    106        1      133    5.479452050E-04
    107        1      134    5.479452050E-04
    108        1      135    5.479452050E-04
    109        1      136    5.479452050E-04
    110        1      137    5.479452050E-04
    111        1      138    5.479452050E-04
    112        1      139    5.479452050E-04
    113        1      140    5.479452050E-04
    114        1      141    5.479452050E-04
    115        1      142    5.479452050E-04
    116        1      143    5.479452050E-04
    117        1      144    5.479452050E-04
    118        1      145    5.479452050E-04
    119        1      146    5.479452050E-04
    120        1      147    5.479452050E-04
    121        1      148    5.479452050E-04
    122        1      149    5.479452050E-04
    123        1      152    5.479452050E-04
    124        1      153    5.479452050E-04
    125        1      154    5.479452050E-04
    126        1      155    5.479452050E-04
    127        1      156    5.479452050E-04
    128        1      157    5.479452050E-04
    129        1      158    5.479452050E-04
    130        1      159    5.479452050E-04
    131        1      160    5.479452050E-04
    132        1      161    5.479452050E-04
    133        1      162    5.479452050E-04
    134        1      163    5.479452050E-04
    135        1      164    5.479452050E-04
    136        1      165    5.479452050E-04
    137        1      166    5.479452050E-04
    138        1      167    5.479452050E-04
    139        1      168    5.479452050E-04
    140        1      169    5.479452050E-04
    141        1      170    5.479452050E-04
    142        1      171    5.479452050E-04
    143        1      172    5.479452050E-04
    144        1      173    5.479452050E-04
    145        1      174    5.479452050E-04
    146        1      175    5.479452050E-04
    147        1      176    5.479452050E-04
    148        1      177    5.479452050E-04
    149        1      178    5.479452050E-04
    150        1      179    5.479452050E-04
    151        1      180    5.479452050E-04
    152        1      181    5.479452050E-04
    153        1      182    5.479452050E-04
    154        1      183    5.479452050E-04
    155        1      184    5.479452050E-04
    156        1      185    5.479452050E-04
    157        1      188    5.479452050E-04
    158        1      189    5.479452050E-04
    159        1      190    5.479452050E-04
    160        1      191    5.479452050E-04
    161        1      192    5.479452050E-04
    162        1      193    5.479452050E-04
    163        1      194    5.479452050E-04
    164        1      195    5.479452050E-04
    165        1      196    5.479452050E-04
    166        1      197    5.479452050E-04
    167        1      198    5.479452050E-04
    168        1      199    5.479452050E-04
    169        1      200    5.479452050E-04
    170        1      201    5.479452050E-04
    171        1      202    5.479452050E-04
    172        1      203    5.479452050E-04
    173        1      204    5.479452050E-04
    174        1      205    5.479452050E-04
    175        1      206    5.479452050E-04
    176        1      207    5.479452050E-04
    177        1      208    5.479452050E-04
    178        1      209    5.479452050E-04
    179        1      210    5.479452050E-04
    180        1      211    5.479452050E-04
    181        1      212    5.479452050E-04
    182        1      213    5.479452050E-04
    183        1      214    5.479452050E-04
    184        1      215    5.479452050E-04
    185        1      216    5.479452050E-04
    186        1      217    5.479452050E-04
    187        1      218    5.479452050E-04
    188        1      219    5.479452050E-04
    189        1      220    5.479452050E-04
    190        1      221    5.479452050E-04
    191        1      222    5.479452050E-04
    192        1      223    5.479452050E-04
    193        1      225    5.479452050E-04
    194        1      226    5.479452050E-04
    195        1      227    5.479452050E-04
    196        1      228    5.479452050E-04
    197        1      229    5.479452050E-04
    198        1      230    5.479452050E-04
    199        1      231    5.479452050E-04
    200        1      232    5.479452050E-04
    201        1      233    5.479452050E-04
    202        1      234    5.479452050E-04
    203        1      235    5.479452050E-04
    204        1      236    5.479452050E-04
    205        1      237    5.479452050E-04
    206        1      238    5.479452050E-04
    207        1      239    5.479452050E-04
    208        1      240    5.479452050E-04
    209        1      241    5.479452050E-04
    210        1      242    5.479452050E-04
    211        1      243    5.479452050E-04
    212        1      244    5.479452050E-04
    213        1      245    5.479452050E-04
    214        1      246    5.479452050E-04
    215        1      247    5.479452050E-04
    216        1      248    5.479452050E-04
    217        1      249    5.479452050E-04
    218        1      250    5.479452050E-04
    219        1      251    5.479452050E-04
    220        1      252    5.479452050E-04
    221        1      253    5.479452050E-04
    222        1      254    5.479452050E-04
    223        1      255    5.479452050E-04
    224        1      256    5.479452050E-04
    225        1      257    5.479452050E-04
    226        1      258    5.479452050E-04
    227        1      259    5.479452050E-04
    228        1      260    5.479452050E-04
    229        1      261    5.479452050E-04
    230        1      262    5.479452050E-04
    231        1      263    5.479452050E-04
    232        1      266    5.479452050E-04
    233        1      267    5.479452050E-04
    234        1      268    5.479452050E-04
    235        1      269    5.479452050E-04
    236        1      270    5.479452050E-04
    237        1      271    5.479452050E-04
    238        1      272    5.479452050E-04
    239        1      273    5.479452050E-04
    240        1      274    5.479452050E-04
    241        1      275    5.479452050E-04
    242        1      276    5.479452050E-04
    243        1      277    5.479452050E-04
    244        1      278    5.479452050E-04
    245        1      279    5.479452050E-04
    246        1      280    5.479452050E-04
    247        1      281    5.479452050E-04
    248        1      282    5.479452050E-04
    249        1      283    5.479452050E-04
    250        1      284    5.479452050E-04
    251        1      285    5.479452050E-04
    252        1      286    5.479452050E-04
    253        1      287    5.479452050E-04
    254        1      288    5.479452050E-04
    255        1      289    5.479452050E-04
    256        1      290    5.479452050E-04
    257        1      291    5.479452050E-04
    258        1      292    5.479452050E-04
    259        1      293    5.479452050E-04
    260        1      294    5.479452050E-04
    261        1      295    5.479452050E-04
    262        1      296    5.479452050E-04
    263        1      297    5.479452050E-04
    264        1      298    5.479452050E-04
    265        1      299    5.479452050E-04
    266        1      300    5.479452050E-04
    267        1      301    5.479452050E-04
    268        1      302    5.479452050E-04
    269        1      303    5.479452050E-04
    270        1      304    5.479452050E-04
    271        1      305    5.479452050E-04
    272        1      306    5.479452050E-04
    273        1      307    5.479452050E-04
    274        1      308    5.479452050E-04
    275        1      309    5.479452050E-04
    276        1      310    5.479452050E-04
    277        1      311    5.479452050E-04
    278        1      312    5.479452050E-04
    279        1      313    5.479452050E-04
    280        1      314    5.479452050E-04
    281        1      352    5.479452050E-04
    282        1      353    5.479452050E-04
    283        1      354    5.479452050E-04
    284        1      355    5.479452050E-04
    285        1      356    5.479452050E-04
    286        1      357    5.479452050E-04
    287        1      358    5.479452050E-04
    288        1      359    5.479452050E-04
    289        1      360    5.479452050E-04
    290        1      361    5.479452050E-04
    291        1      362    5.479452050E-04
    292        1      363    5.479452050E-04
    293        1      364    5.479452050E-04
    294        1      365    5.479452050E-04
    295        1      366    5.479452050E-04
    296        1      367    5.479452050E-04
    297        1      368    5.479452050E-04
    298        1      369    5.479452050E-04
    299        1      370    5.479452050E-04
    300        1      371    5.479452050E-04
    301        1      372    5.479452050E-04
    302        1      373    5.479452050E-04
    303        1      374    5.479452050E-04
    304        1      375    5.479452050E-04
    305        1      376    5.479452050E-04
    306        1      377    5.479452050E-04
    307        1      378    5.479452050E-04
    308        1      379    5.479452050E-04
    309        1      380    5.479452050E-04
    310        1      381    5.479452050E-04
    311        1      382    5.479452050E-04
    312        1      383    5.479452050E-04
    313        1      384    5.479452050E-04
    314        1      385    5.479452050E-04
    315        1      386    5.479452050E-04
    316        1      387    5.479452050E-04
    317        1      388    5.479452050E-04
    318        1      389    5.479452050E-04
    319        1      390    5.479452050E-04
    320        1      391    5.479452050E-04
    321        1      392    5.479452050E-04
    322        1      393    5.479452050E-04
    323        1      394    5.479452050E-04
    324        1      395    5.479452050E-04
    325        1      396    5.479452050E-04
    326        1      397    5.479452050E-04
    327        1      398    5.479452050E-04
    328        1      399    5.479452050E-04
    329        1      400    5.479452050E-04
    330        1      401    5.479452050E-04
    331        1      402    5.479452050E-04
    332        1      403    5.479452050E-04
    333        1      404    5.479452050E-04
    334        1      405    5.479452050E-04
    335        1      406    5.479452050E-04
    336        1      407    5.479452050E-04
    337        1      408    5.479452050E-04
    338        1      409    5.479452050E-04
    339        1      410    5.479452050E-04
    340        1      411    5.479452050E-04
    341        1      412    5.479452050E-04
    342        1      413    5.479452050E-04
    343        1      414    5.479452050E-04
    344        1      415    5.479452050E-04
    345        1      416    5.479452050E-04
    346        1      417    5.479452050E-04
    347        1      418    5.479452050E-04
    348        1      419    5.479452050E-04
    349        1      420    5.479452050E-04
    350        1      421    5.479452050E-04
    351        1      422    5.479452050E-04
    352        1      423    5.479452050E-04
    353        1      424    5.479452050E-04
    354        1      425    5.479452050E-04
    355        1      426    5.479452050E-04
    356        1      427    5.479452050E-04
    357        1      428    5.479452050E-04
    358        1      429    5.479452050E-04
    359        1      430    5.479452050E-04
    360        1      431    5.479452050E-04
    361        1      432    5.479452050E-04
    362        1      433    5.479452050E-04
    363        1      434    5.479452050E-04
    364        1      435    5.479452050E-04
    365        1      436    5.479452050E-04
    366        1      437    5.479452050E-04
    367        1      438    5.479452050E-04
    368        1      439    5.479452050E-04
    369        1      442    5.479452050E-04
    370        1      443    5.479452050E-04
    371        1      444    5.479452050E-04
    372        1      445    5.479452050E-04
    373        1      446    5.479452050E-04
    374        1      447    5.479452050E-04
    375        1      448    5.479452050E-04
    376        1      449    5.479452050E-04
    377        1      450    5.479452050E-04
    378        1      451    5.479452050E-04
    379        1      452    5.479452050E-04
    380        1      453    5.479452050E-04
    381        1      454    5.479452050E-04
    382        1      455    5.479452050E-04
    383        1      456    5.479452050E-04
    384        1      457    5.479452050E-04
    385        1      458    5.479452050E-04
    386        1      459    5.479452050E-04
    387        1      460    5.479452050E-04
    388        1      461    5.479452050E-04
    389        1      462    5.479452050E-04
    390        1      463    5.479452050E-04
    391        1      464    5.479452050E-04
    392        1      465    5.479452050E-04
    393        1      466    5.479452050E-04
    394        1      467    5.479452050E-04
    395        1      468    5.479452050E-04
    396        1      469    5.479452050E-04
    397        1      470    5.479452050E-04
    398        1      471    5.479452050E-04
    399        1      472    5.479452050E-04
    400        1      473    5.479452050E-04
    401        1      474    5.479452050E-04
    402        1      475    5.479452050E-04
    403        1      476    5.479452050E-04
    404        1      477    5.479452050E-04
    405        1      478    5.479452050E-04
    406        1      479    5.479452050E-04
    407        1      480    5.479452050E-04
    408        1      481    5.479452050E-04
    409        1      482    5.479452050E-04
    410        1      483    5.479452050E-04
    411        1      484    5.479452050E-04
    412        1      485    5.479452050E-04
    413        1      486    5.479452050E-04
    414        1      487    5.479452050E-04
    415        1      488    5.479452050E-04
    416        1      489    5.479452050E-04
    417        1      490    5.479452050E-04
    418        1      491    5.479452050E-04
    419        1      492    5.479452050E-04
    420        1      493    5.479452050E-04
    421        1      494    5.479452050E-04
    422        1      495    5.479452050E-04
    423        1      496    5.479452050E-04
    424        1      497    5.479452050E-04
    425        1      498    5.479452050E-04
    426        1      499    5.479452050E-04
    427        1      500    5.479452050E-04
    428        1      501    5.479452050E-04
    429        1      502    5.479452050E-04
    430        1      503    5.479452050E-04
    431        1      504    5.479452050E-04
    432        1      505    5.479452050E-04
    433        1      506    5.479452050E-04
    434        1      507    5.479452050E-04
    435        1      508    5.479452050E-04
    436        1      509    5.479452050E-04
    437        1      510    5.479452050E-04
    438        1      511    5.479452050E-04
    439        1      512    5.479452050E-04
    440        1      513    5.479452050E-04
    441        1      514    5.479452050E-04
    442        1      515    5.479452050E-04
    443        1      518    5.479452050E-04
    444        1      519    5.479452050E-04
    445        1      520    5.479452050E-04
    446        1      521    5.479452050E-04
    447        1      522    5.479452050E-04
    448        1      523    5.479452050E-04
    449        1      524    5.479452050E-04
    450        1      525    5.479452050E-04
    451        1      526    5.479452050E-04
    452        1      527    5.479452050E-04
    453        1      528    5.479452050E-04
    454        1      529    5.479452050E-04
    455        1      530    5.479452050E-04
    456        1      531    5.479452050E-04
    457        1      532    5.479452050E-04
    458        1      533    5.479452050E-04
    459        1      534    5.479452050E-04
    460        1      535    5.479452050E-04
    461        1      536    5.479452050E-04
    462        1      537    5.479452050E-04
    463        1      538    5.479452050E-04
    464        1      539    5.479452050E-04
    465        1      540    5.479452050E-04
    466        1      541    5.479452050E-04
    467        1      542    5.479452050E-04
    468        1      543    5.479452050E-04
    469        1      544    5.479452050E-04
    470        1      545    5.479452050E-04
    471        1      546    5.479452050E-04
    472        1      547    5.479452050E-04
    473        1      548    5.479452050E-04
    474        1      549    5.479452050E-04
    475        1      550    5.479452050E-04
    476        1      551    5.479452050E-04
    477        1      552    5.479452050E-04
    478        1      553    5.479452050E-04
    479        1      554    5.479452050E-04
    480        1      555    5.479452050E-04
    481        1      556    5.479452050E-04
    482        1      557    5.479452050E-04
    483        1      558    5.479452050E-04
    484        1      559    5.479452050E-04
    485        1      560    5.479452050E-04
    486        1      561    5.479452050E-04
    487        1      562    5.479452050E-04
    488        1      563    5.479452050E-04
    489        1      564    5.479452050E-04
    490        1      565    5.479452050E-04
    491        1      566    5.479452050E-04
    492        1      567    5.479452050E-04
    493        1      568    5.479452050E-04
    494        1      569    5.479452050E-04
    495        1      570    5.479452050E-04
    496        1      571    5.479452050E-04
    497        1      572    5.479452050E-04
    498        1      573    5.479452050E-04
    499        1      574    5.479452050E-04
    500        1      575    5.479452050E-04
    501        1      576    5.479452050E-04
    502        1      577    5.479452050E-04
    503        1      578    5.479452050E-04
    504        1      579    5.479452050E-04
    505        1      580    5.479452050E-04
    506        1      581    5.479452050E-04
    507        1      582    5.479452050E-04
    508        1      583    5.479452050E-04
    509        1      584    5.479452050E-04
    510        1      585    5.479452050E-04
    511        1      586    5.479452050E-04
    512        1      587    5.479452050E-04
    513        1      588    5.479452050E-04
    514        1      589    5.479452050E-04
    515        1      590    5.479452050E-04
    516        1      591    5.479452050E-04
    517        1      592    5.479452050E-04
    518        1      593    5.479452050E-04
    519        1      594    5.479452050E-04
    520        1      595    5.479452050E-04
    521        1      598    5.479452050E-04
    522        1      599    5.479452050E-04
    523        1      600    5.479452050E-04
    524        1      601    5.479452050E-04
    525        1      602    5.479452050E-04
    526        1      603    5.479452050E-04
    527        1      604    5.479452050E-04
    528        1      605    5.479452050E-04
    529        1      606    5.479452050E-04
    530        1      607    5.479452050E-04
    531        1      608    5.479452050E-04
    532        1      609    5.479452050E-04
    533        1      610    5.479452050E-04
    534        1      611    5.479452050E-04
    535        1      612    5.479452050E-04
    536        1      613    5.479452050E-04
    537        1      614    5.479452050E-04
    538        1      615    5.479452050E-04
    539        1      616    5.479452050E-04
    540        1      617    5.479452050E-04
    541        1      618    5.479452050E-04
    542        1      619    5.479452050E-04
    543        1      620    5.479452050E-04
    544        1      621    5.479452050E-04
    545        1      622    5.479452050E-04
    546        1      623    5.479452050E-04
    547        1      624    5.479452050E-04
    548        1      625    5.479452050E-04
    549        1      626    5.479452050E-04
    550        1      627    5.479452050E-04
    551        1      628    5.479452050E-04
    552        1      629    5.479452050E-04
    553        1      630    5.479452050E-04
    554        1      631    5.479452050E-04
    555        1      632    5.479452050E-04
    556        1      633    5.479452050E-04
    557        1      634    5.479452050E-04
    558        1      635    5.479452050E-04
    559        1      636    5.479452050E-04
    560        1      637    5.479452050E-04
    561        1      638    5.479452050E-04
    562        1      639    5.479452050E-04
    563        1      640    5.479452050E-04
    564        1      641    5.479452050E-04
    565        1      642    5.479452050E-04
    566        1      643    5.479452050E-04
    567        1      644    5.479452050E-04
    568        1      645    5.479452050E-04
    569        1      646    5.479452050E-04
    570        1      647    5.479452050E-04
    571        1      648    5.479452050E-04
    572        1      649    5.479452050E-04
    573        1      650    5.479452050E-04
    574        1      651    5.479452050E-04
    575        1      652    5.479452050E-04
    576        1      653    5.479452050E-04
    577        1      654    5.479452050E-04
    578        1      655    5.479452050E-04
    579        1      656    5.479452050E-04
    580        1      657    5.479452050E-04
    581        1      658    5.479452050E-04
    582        1      659    5.479452050E-04
    583        1      660    5.479452050E-04
    584        1      661    5.479452050E-04
    585        1      662    5.479452050E-04
    586        1      663    5.479452050E-04
    587        1      664    5.479452050E-04
    588        1      665    5.479452050E-04
    589        1      666    5.479452050E-04
    590        1      667    5.479452050E-04
    591        1      668    5.479452050E-04
    592        1      669    5.479452050E-04
    593        1      670    5.479452050E-04
    594        1      671    5.479452050E-04
    595        1      672    5.479452050E-04
    596        1      673    5.479452050E-04
    597        1      674    5.479452050E-04
    598        1      675    5.479452050E-04
    599        1      676    5.479452050E-04
    600        1      679    5.479452050E-04
    601        1      680    5.479452050E-04
    602        1      681    5.479452050E-04
    603        1      682    5.479452050E-04
    604        1      683    5.479452050E-04
    605        1      684    5.479452050E-04
    606        1      685    5.479452050E-04
    607        1      686    5.479452050E-04
    608        1      687    5.479452050E-04
    609        1      688    5.479452050E-04
    610        1      689    5.479452050E-04
    611        1      690    5.479452050E-04
    612        1      691    5.479452050E-04
    613        1      692    5.479452050E-04
    614        1      693    5.479452050E-04
    615        1      694    5.479452050E-04
    616        1      695    5.479452050E-04
    617        1      696    5.479452050E-04
    618        1      697    5.479452050E-04
    619        1      698    5.479452050E-04
    620        1      699    5.479452050E-04
    621        1      700    5.479452050E-04
    622        1      701    5.479452050E-04
    623        1      702    5.479452050E-04
    624        1      703    5.479452050E-04
    625        1      704    5.479452050E-04
    626        1      705    5.479452050E-04
    627        1      706    5.479452050E-04
    628        1      707    5.479452050E-04
    629        1      708    5.479452050E-04
    630        1      709    5.479452050E-04
    631        1      710    5.479452050E-04
    632        1      711    5.479452050E-04
    633        1      712    5.479452050E-04
    634        1      713    5.479452050E-04
    635        1      714    5.479452050E-04
    636        1      715    5.479452050E-04
    637        1      716    5.479452050E-04
    638        1      717    5.479452050E-04
    639        1      718    5.479452050E-04
    640        1      719    5.479452050E-04
    641        1      720    5.479452050E-04
    642        1      721    5.479452050E-04
    643        1      722    5.479452050E-04
    644        1      723    5.479452050E-04
    645        1      724    5.479452050E-04
    646        1      725    5.479452050E-04
    647        1      726    5.479452050E-04
    648        1      727    5.479452050E-04
    649        1      728    5.479452050E-04
    650        1      729    5.479452050E-04
    651        1      730    5.479452050E-04
    652        1      731    5.479452050E-04
    653        1      732    5.479452050E-04
    654        1      733    5.479452050E-04
    655        1      734    5.479452050E-04
    656        1      735    5.479452050E-04
    657        1      736    5.479452050E-04
    658        1      737    5.479452050E-04
    659        1      738    5.479452050E-04
    660        1      739    5.479452050E-04
    661        1      740    5.479452050E-04
    662        1      741    5.479452050E-04
    663        1      742    5.479452050E-04
    664        1      743    5.479452050E-04
    665        1      744    5.479452050E-04
    666        1      745    5.479452050E-04
    667        1      746    5.479452050E-04
    668        1      747    5.479452050E-04
    669        1      748    5.479452050E-04
    670        1      749    5.479452050E-04
    671        1      750    5.479452050E-04
    672        1      751    5.479452050E-04
    673        1      752    5.479452050E-04
    674        1      753    5.479452050E-04
    675        1      754    5.479452050E-04
    676        1      755    5.479452050E-04
    677        1      756    5.479452050E-04
    678        1      757    5.479452050E-04
    679        1      758    5.479452050E-04
    680        1      761    5.479452050E-04
    681        1      762    5.479452050E-04
    682        1      763    5.479452050E-04
    683        1      764    5.479452050E-04
    684        1      765    5.479452050E-04
    685        1      766    5.479452050E-04
    686        1      767    5.479452050E-04
    687        1      768    5.479452050E-04
    688        1      769    5.479452050E-04
    689        1      770    5.479452050E-04
    690        1      771    5.479452050E-04
    691        1      772    5.479452050E-04
    692        1      773    5.479452050E-04
    693        1      774    5.479452050E-04
    694        1      775    5.479452050E-04
    695        1      776    5.479452050E-04
    696        1      777    5.479452050E-04
    697        1      778    5.479452050E-04
    698        1      779    5.479452050E-04
    699        1      780    5.479452050E-04
    700        1      781    5.479452050E-04
    701        1      782    5.479452050E-04
    702        1      783    5.479452050E-04
    703        1      784    5.479452050E-04
    704        1      785    5.479452050E-04
    705        1      786    5.479452050E-04
    706        1      787    5.479452050E-04
    707        1      788    5.479452050E-04
    708        1      789    5.479452050E-04
    709        1      790    5.479452050E-04
    710        1      791    5.479452050E-04
    711        1      792    5.479452050E-04
    712        1      793    5.479452050E-04
    713        1      794    5.479452050E-04
    714        1      795    5.479452050E-04
    715        1      796    5.479452050E-04
    716        1      797    5.479452050E-04
    717        1      798    5.479452050E-04
    718        1      799    5.479452050E-04
    719        1      800    5.479452050E-04
    720        1      801    5.479452050E-04
    721        1      802    5.479452050E-04
    722        1      803    5.479452050E-04
    723        1      804    5.479452050E-04
    724        1      805    5.479452050E-04
    725        1      806    5.479452050E-04
    726        1      807    5.479452050E-04
    727        1      808    5.479452050E-04
    728        1      809    5.479452050E-04
    729        1      810    5.479452050E-04
    730        1      811    5.479452050E-04
    731        1      812    5.479452050E-04
    732        1      813    5.479452050E-04
    733        1      814    5.479452050E-04
    734        1      815    5.479452050E-04
    735        1      816    5.479452050E-04
    736        1      817    5.479452050E-04
    737        1      818    5.479452050E-04
    738        1      819    5.479452050E-04
    739        1      820    5.479452050E-04
    740        1      821    5.479452050E-04
    741        1      822    5.479452050E-04
    742        1      823    5.479452050E-04
    743        1      824    5.479452050E-04
    744        1      825    5.479452050E-04
    745        1      826    5.479452050E-04
    746        1      827    5.479452050E-04
    747        1      828    5.479452050E-04
    748        1      829    5.479452050E-04
    749        1      830    5.479452050E-04
    750        1      831    5.479452050E-04
    751        1      832    5.479452050E-04
    752        1      833    5.479452050E-04
    753        1      834    5.479452050E-04
    754        1      835    5.479452050E-04
    755        1      836    5.479452050E-04
    756        1      837    5.479452050E-04
    757        1      838    5.479452050E-04
    758        1      839    5.479452050E-04
    759        1      840    5.479452050E-04
    760        1      841    5.479452050E-04
    761        1      844    5.479452050E-04
    762        1      845    5.479452050E-04
    763        1      846    5.479452050E-04
    764        1      847    5.479452050E-04
    765        1      848    5.479452050E-04
    766        1      849    5.479452050E-04
    767        1      850    5.479452050E-04
    768        1      851    5.479452050E-04
    769        1      852    5.479452050E-04
    770        1      853    5.479452050E-04
    771        1      854    5.479452050E-04
    772        1      855    5.479452050E-04
    773        1      856    5.479452050E-04
    774        1      857    5.479452050E-04
    775        1      858    5.479452050E-04
    776        1      859    5.479452050E-04
    777        1      860    5.479452050E-04
    778        1      861    5.479452050E-04
    779        1      862    5.479452050E-04
    780        1      863    5.479452050E-04
    781        1      864    5.479452050E-04
    782        1      865    5.479452050E-04
    783        1      866    5.479452050E-04
    784        1      867    5.479452050E-04
    785        1      868    5.479452050E-04
    786        1      869    5.479452050E-04
    787        1      870    5.479452050E-04
    788        1      871    5.479452050E-04
    789        1      872    5.479452050E-04
    790        1      873    5.479452050E-04
    791        1      874    5.479452050E-04
    792        1      875    5.479452050E-04
    793        1      876    5.479452050E-04
    794        1      877    5.479452050E-04
    795        1      878    5.479452050E-04
    796        1      879    5.479452050E-04
    797        1      880    5.479452050E-04
    798        1      881    5.479452050E-04
    799        1      882    5.479452050E-04
    800        1      883    5.479452050E-04
    801        1      884    5.479452050E-04
    802        1      885    5.479452050E-04
    803        1      886    5.479452050E-04
    804        1      887    5.479452050E-04
    805        1      888    5.479452050E-04
    806        1      889    5.479452050E-04
    807        1      890    5.479452050E-04
    808        1      891    5.479452050E-04
    809        1      892    5.479452050E-04
    810        1      893    5.479452050E-04
    811        1      894    5.479452050E-04
    812        1      895    5.479452050E-04
    813        1      896    5.479452050E-04
    814        1      897    5.479452050E-04
    815        1      898    5.479452050E-04
    816        1      899    5.479452050E-04
    817        1      900    5.479452050E-04
    818        1      901    5.479452050E-04
    819        1      902    5.479452050E-04
    820        1      903    5.479452050E-04
    821        1      904    5.479452050E-04
    822        1      905    5.479452050E-04
    823        1      906    5.479452050E-04
    824        1      907    5.479452050E-04
    825        1      908    5.479452050E-04
    826        1      909    5.479452050E-04
    827        1      910    5.479452050E-04
    828        1      911    5.479452050E-04
    829        1      912    5.479452050E-04
    830        1      913    5.479452050E-04
    831        1      914    5.479452050E-04
    832        1      915    5.479452050E-04
    833        1      916    5.479452050E-04
    834        1      917    5.479452050E-04
    835        1      918    5.479452050E-04
    836        1      919    5.479452050E-04
    837        1      920    5.479452050E-04
    838        1      921    5.479452050E-04
    839        1      922    5.479452050E-04
    840        1      923    5.479452050E-04
    841        1      924    5.479452050E-04
    842        1      925    5.479452050E-04
    843        1      926    5.479452050E-04
    844        1      927    5.479452050E-04
    845        1      930    5.479452050E-04
    846        1      931    5.479452050E-04
    847        1      932    5.479452050E-04
    848        1      933    5.479452050E-04
    849        1      934    5.479452050E-04
    850        1      935    5.479452050E-04
    851        1      936    5.479452050E-04
    852        1      937    5.479452050E-04
    853        1      938    5.479452050E-04
    854        1      939    5.479452050E-04
    855        1      940    5.479452050E-04
    856        1      941    5.479452050E-04
    857        1      942    5.479452050E-04
    858        1      943    5.479452050E-04
    859        1      944    5.479452050E-04
    860        1      945    5.479452050E-04
    861        1      946    5.479452050E-04
    862        1      947    5.479452050E-04
    863        1      948    5.479452050E-04
    864        1      949    5.479452050E-04
    865        1      950    5.479452050E-04
    866        1      951    5.479452050E-04
    867        1      952    5.479452050E-04
    868        1      953    5.479452050E-04
    869        1      954    5.479452050E-04
    870        1      955    5.479452050E-04
    871        1      956    5.479452050E-04
    872        1      957    5.479452050E-04
    873        1      958    5.479452050E-04
    874        1      959    5.479452050E-04
    875        1      960    5.479452050E-04
    876        1      961    5.479452050E-04
    877        1      962    5.479452050E-04
    878        1      963    5.479452050E-04
    879        1      964    5.479452050E-04
    880        1      965    5.479452050E-04
    881        1      966    5.479452050E-04
    882        1      967    5.479452050E-04
    883        1      968    5.479452050E-04
    884        1      969    5.479452050E-04
    885        1      970    5.479452050E-04
    886        1      971    5.479452050E-04
    887        1      972    5.479452050E-04
    888        1      973    5.479452050E-04
    889        1      974    5.479452050E-04
    890        1      975    5.479452050E-04
    891        1      976    5.479452050E-04
    892        1      977    5.479452050E-04
    893        1      978    5.479452050E-04
    894        1      979    5.479452050E-04
    895        1      980    5.479452050E-04
    896        1      981    5.479452050E-04
    897        1      982    5.479452050E-04
    898        1      983    5.479452050E-04
    899        1      984    5.479452050E-04
    900        1      985    5.479452050E-04
    901        1      986    5.479452050E-04
    902        1      987    5.479452050E-04
    903        1      988    5.479452050E-04
    904        1      989    5.479452050E-04
    905        1      990    5.479452050E-04
    906        1      991    5.479452050E-04
    907        1      992    5.479452050E-04
    908        1      993    5.479452050E-04
    909        1      994    5.479452050E-04
    910        1      995    5.479452050E-04
    911        1      996    5.479452050E-04
    912        1      997    5.479452050E-04
    913        1      998    5.479452050E-04
    914        1      999    5.479452050E-04
    915        1     1000    5.479452050E-04
    916        1     1001    5.479452050E-04
    917        1     1002    5.479452050E-04
    918        1     1003    5.479452050E-04
    919        1     1004    5.479452050E-04
    920        1     1005    5.479452050E-04
    921        1     1006    5.479452050E-04
    922        1     1007    5.479452050E-04
    923        1     1008    5.479452050E-04
    924        1     1009    5.479452050E-04
    925        1     1010    5.479452050E-04
    926        1     1011    5.479452050E-04
    927        1     1012    5.479452050E-04
    928        1     1013    5.479452050E-04
    929        1     1014    5.479452050E-04
    930        1     1015    5.479452050E-04
    931        1     1016    5.479452050E-04
    932        1     1017    5.479452050E-04
    933        1     1018    5.479452050E-04
    934        1     1019    5.479452050E-04
    935        1     1020    5.479452050E-04
    936        1     1021    5.479452050E-04
    937        1     1022    5.479452050E-04
    938        1     1023    5.479452050E-04
    939        1     1024    5.479452050E-04
    940        1     1025    5.479452050E-04
    941        1     1028    5.479452050E-04
    942        1     1029    5.479452050E-04
    943        1     1030    5.479452050E-04
    944        1     1031    5.479452050E-04
    945        1     1032    5.479452050E-04
    946        1     1033    5.479452050E-04
    947        1     1034    5.479452050E-04
    948        1     1035    5.479452050E-04
    949        1     1036    5.479452050E-04
    950        1     1037    5.479452050E-04
    951        1     1038    5.479452050E-04
    952        1     1039    5.479452050E-04
    953        1     1040    5.479452050E-04
    954        1     1041    5.479452050E-04
    955        1     1042    5.479452050E-04
    956        1     1043    5.479452050E-04
    957        1     1044    5.479452050E-04
    958        1     1045    5.479452050E-04
    959        1     1046    5.479452050E-04
    960        1     1047    5.479452050E-04
    961        1     1048    5.479452050E-04
    962        1     1049    5.479452050E-04
    963        1     1050    5.479452050E-04
    964        1     1051    5.479452050E-04
    965        1     1052    5.479452050E-04
    966        1     1053    5.479452050E-04
    967        1     1054    5.479452050E-04
    968        1     1055    5.479452050E-04
    969        1     1056    5.479452050E-04
    970        1     1057    5.479452050E-04
    971        1     1058    5.479452050E-04
    972        1     1059    5.479452050E-04
    973        1     1060    5.479452050E-04
    974        1     1061    5.479452050E-04
    975        1     1062    5.479452050E-04
    976        1     1063    5.479452050E-04
    977        1     1064    5.479452050E-04
    978        1     1065    5.479452050E-04
    979        1     1066    5.479452050E-04
    980        1     1067    5.479452050E-04
    981        1     1068    5.479452050E-04
    982        1     1069    5.479452050E-04
    983        1     1070    5.479452050E-04
    984        1     1071    5.479452050E-04
    985        1     1072    5.479452050E-04
    986        1     1073    5.479452050E-04
    987        1     1074    5.479452050E-04
    988        1     1075    5.479452050E-04
    989        1     1076    5.479452050E-04
    990        1     1077    5.479452050E-04
    991        1     1078    5.479452050E-04
    992        1     1079    5.479452050E-04
    993        1     1080    5.479452050E-04
    994        1     1081    5.479452050E-04
    995        1     1082    5.479452050E-04
    996        1     1083    5.479452050E-04
    997        1     1084    5.479452050E-04
    998        1     1085    5.479452050E-04
    999        1     1086    5.479452050E-04
    1000       1     1087    5.479452050E-04
    1001       1     1088    5.479452050E-04
    1002       1     1089    5.479452050E-04
    1003       1     1090    5.479452050E-04
    1004       1     1091    5.479452050E-04
    1005       1     1092    5.479452050E-04
    1006       1     1093    5.479452050E-04
    1007       1     1094    5.479452050E-04
    1008       1     1095    5.479452050E-04
    1009       1     1096    5.479452050E-04
    1010       1     1097    5.479452050E-04
    1011       1     1098    5.479452050E-04
    1012       1     1099    5.479452050E-04
    1013       1     1100    5.479452050E-04
    1014       1     1101    5.479452050E-04
    1015       1     1102    5.479452050E-04
    1016       1     1103    5.479452050E-04
    1017       1     1104    5.479452050E-04
    1018       1     1105    5.479452050E-04
    1019       1     1106    5.479452050E-04
    1020       1     1107    5.479452050E-04
    1021       1     1108    5.479452050E-04
    1022       1     1109    5.479452050E-04
    1023       1     1110    5.479452050E-04
    1024       1     1111    5.479452050E-04
    1025       1     1112    5.479452050E-04
    1026       1     1113    5.479452050E-04
    1027       1     1114    5.479452050E-04
    1028       1     1115    5.479452050E-04
    1029       1     1116    5.479452050E-04
    1030       1     1117    5.479452050E-04
    1031       1     1120    5.479452050E-04
    1032       1     1121    5.479452050E-04
    1033       1     1122    5.479452050E-04
    1034       1     1123    5.479452050E-04
    1035       1     1124    5.479452050E-04
    1036       1     1125    5.479452050E-04
    1037       1     1126    5.479452050E-04
    1038       1     1127    5.479452050E-04
    1039       1     1128    5.479452050E-04
    1040       1     1129    5.479452050E-04
    1041       1     1130    5.479452050E-04
    1042       1     1131    5.479452050E-04
    1043       1     1132    5.479452050E-04
    1044       1     1133    5.479452050E-04
    1045       1     1134    5.479452050E-04
    1046       1     1135    5.479452050E-04
    1047       1     1136    5.479452050E-04
    1048       1     1137    5.479452050E-04
    1049       1     1138    5.479452050E-04
    1050       1     1139    5.479452050E-04
    1051       1     1140    5.479452050E-04
    1052       1     1141    5.479452050E-04
    1053       1     1142    5.479452050E-04
    1054       1     1143    5.479452050E-04
    1055       1     1144    5.479452050E-04
    1056       1     1145    5.479452050E-04
    1057       1     1146    5.479452050E-04
    1058       1     1147    5.479452050E-04
    1059       1     1148    5.479452050E-04
    1060       1     1149    5.479452050E-04
    1061       1     1150    5.479452050E-04
    1062       1     1151    5.479452050E-04
    1063       1     1152    5.479452050E-04
    1064       1     1153    5.479452050E-04
    1065       1     1154    5.479452050E-04
    1066       1     1155    5.479452050E-04
    1067       1     1156    5.479452050E-04
    1068       1     1157    5.479452050E-04
    1069       1     1158    5.479452050E-04
    1070       1     1159    5.479452050E-04
    1071       1     1160    5.479452050E-04
    1072       1     1161    5.479452050E-04
    1073       1     1162    5.479452050E-04
    1074       1     1163    5.479452050E-04
    1075       1     1164    5.479452050E-04
    1076       1     1165    5.479452050E-04
    1077       1     1166    5.479452050E-04
    1078       1     1167    5.479452050E-04
    1079       1     1168    5.479452050E-04
    1080       1     1169    5.479452050E-04
    1081       1     1170    5.479452050E-04
    1082       1     1171    5.479452050E-04
    1083       1     1172    5.479452050E-04
    1084       1     1173    5.479452050E-04
    1085       1     1174    5.479452050E-04
    1086       1     1175    5.479452050E-04
    1087       1     1176    5.479452050E-04
    1088       1     1177    5.479452050E-04
    1089       1     1178    5.479452050E-04
    1090       1     1179    5.479452050E-04
    1091       1     1180    5.479452050E-04
    1092       1     1181    5.479452050E-04
    1093       1     1182    5.479452050E-04
    1094       1     1183    5.479452050E-04
    1095       1     1184    5.479452050E-04
    1096       1     1185    5.479452050E-04
    1097       1     1186    5.479452050E-04
    1098       1     1187    5.479452050E-04
    1099       1     1188    5.479452050E-04
    1100       1     1189    5.479452050E-04
    1101       1     1190    5.479452050E-04
    1102       1     1191    5.479452050E-04
    1103       1     1192    5.479452050E-04
    1104       1     1193    5.479452050E-04
    1105       1     1194    5.479452050E-04
    1106       1     1195    5.479452050E-04
    1107       1     1196    5.479452050E-04
    1108       1     1197    5.479452050E-04
    1109       1     1198    5.479452050E-04
    1110       1     1199    5.479452050E-04
    1111       1     1200    5.479452050E-04
    1112       1     1201    5.479452050E-04
    1113       1     1202    5.479452050E-04
    1114       1     1203    5.479452050E-04
    1115       1     1204    5.479452050E-04
    1116       1     1205    5.479452050E-04
    1117       1     1206    5.479452050E-04
    1118       1     1207    5.479452050E-04
    1119       1     1208    5.479452050E-04
    1120       1     1209    5.479452050E-04
    1121       1     1210    5.479452050E-04
    1122       1     1211    5.479452050E-04
    1123       1     1212    5.479452050E-04
    1124       1     1213    5.479452050E-04
    1125       1     1214    5.479452050E-04
    1126       1     1215    5.479452050E-04
    1127       1     1216    5.479452050E-04
    1128       1     1217    5.479452050E-04
    1129       1     1218    5.479452050E-04
    1130       1     1219    5.479452050E-04
    1131       1     1220    5.479452050E-04
    1132       1     1221    5.479452050E-04
    1133       1     1222    5.479452050E-04
    1134       1     1223    5.479452050E-04
    1135       1     1224    5.479452050E-04
    1136       1     1227    5.479452050E-04
    1137       1     1228    5.479452050E-04
    1138       1     1229    5.479452050E-04
    1139       1     1230    5.479452050E-04
    1140       1     1231    5.479452050E-04
    1141       1     1232    5.479452050E-04
    1142       1     1233    5.479452050E-04
    1143       1     1234    5.479452050E-04
    1144       1     1235    5.479452050E-04
    1145       1     1236    5.479452050E-04
    1146       1     1237    5.479452050E-04
    1147       1     1238    5.479452050E-04
    1148       1     1239    5.479452050E-04
    1149       1     1240    5.479452050E-04
    1150       1     1241    5.479452050E-04
    1151       1     1242    5.479452050E-04
    1152       1     1243    5.479452050E-04
    1153       1     1244    5.479452050E-04
    1154       1     1245    5.479452050E-04
    1155       1     1246    5.479452050E-04
    1156       1     1247    5.479452050E-04
    1157       1     1248    5.479452050E-04
    1158       1     1249    5.479452050E-04
    1159       1     1250    5.479452050E-04
    1160       1     1251    5.479452050E-04
    1161       1     1252    5.479452050E-04
    1162       1     1253    5.479452050E-04
    1163       1     1254    5.479452050E-04
    1164       1     1255    5.479452050E-04
    1165       1     1256    5.479452050E-04
    1166       1     1257    5.479452050E-04
    1167       1     1258    5.479452050E-04
    1168       1     1259    5.479452050E-04
    1169       1     1260    5.479452050E-04
    1170       1     1261    5.479452050E-04
    1171       1     1262    5.479452050E-04
    1172       1     1263    5.479452050E-04
    1173       1     1264    5.479452050E-04
    1174       1     1265    5.479452050E-04
    1175       1     1266    5.479452050E-04
    1176       1     1267    5.479452050E-04
    1177       1     1268    5.479452050E-04
    1178       1     1269    5.479452050E-04
    1179       1     1270    5.479452050E-04
    1180       1     1271    5.479452050E-04
    1181       1     1272    5.479452050E-04
    1182       1     1273    5.479452050E-04
    1183       1     1274    5.479452050E-04
    1184       1     1275    5.479452050E-04
    1185       1     1276    5.479452050E-04
    1186       1     1277    5.479452050E-04
    1187       1     1278    5.479452050E-04
    1188       1     1279    5.479452050E-04
    1189       1     1280    5.479452050E-04
    1190       1     1281    5.479452050E-04
    1191       1     1282    5.479452050E-04
    1192       1     1283    5.479452050E-04
    1193       1     1284    5.479452050E-04
    1194       1     1285    5.479452050E-04
    1195       1     1286    5.479452050E-04
    1196       1     1287    5.479452050E-04
    1197       1     1288    5.479452050E-04
    1198       1     1289    5.479452050E-04
    1199       1     1290    5.479452050E-04
    1200       1     1291    5.479452050E-04
    1201       1     1292    5.479452050E-04
    1202       1     1293    5.479452050E-04
    1203       1     1294    5.479452050E-04
    1204       1     1295    5.479452050E-04
    1205       1     1296    5.479452050E-04
    1206       1     1297    5.479452050E-04
    1207       1     1298    5.479452050E-04
    1208       1     1299    5.479452050E-04
    1209       1     1300    5.479452050E-04
    1210       1     1301    5.479452050E-04
    1211       1     1302    5.479452050E-04
    1212       1     1303    5.479452050E-04
    1213       1     1304    5.479452050E-04
    1214       1     1305    5.479452050E-04
    1215       1     1306    5.479452050E-04
    1216       1     1307    5.479452050E-04
    1217       1     1308    5.479452050E-04
    1218       1     1309    5.479452050E-04
    1219       1     1310    5.479452050E-04
    1220       1     1311    5.479452050E-04
    1221       1     1312    5.479452050E-04
    1222       1     1313    5.479452050E-04
    1223       1     1314    5.479452050E-04
    1224       1     1315    5.479452050E-04
    1225       1     1316    5.479452050E-04
    1226       1     1317    5.479452050E-04
    1227       1     1318    5.479452050E-04
    1228       1     1319    5.479452050E-04
    1229       1     1320    5.479452050E-04
    1230       1     1321    5.479452050E-04
    1231       1     1322    5.479452050E-04
    1232       1     1323    5.479452050E-04
    1233       1     1324    5.479452050E-04
    1234       1     1325    5.479452050E-04
    1235       1     1326    5.479452050E-04
    1236       1     1327    5.479452050E-04
    1237       1     1328    5.479452050E-04
    1238       1     1329    5.479452050E-04
    1239       1     1330    5.479452050E-04
    1240       1     1331    5.479452050E-04
    1241       1     1332    5.479452050E-04
    1242       1     1333    5.479452050E-04
    1243       1     1334    5.479452050E-04
    1244       1     1335    5.479452050E-04
    1245       1     1336    5.479452050E-04
    1246       1     1337    5.479452050E-04
    1247       1     1338    5.479452050E-04
    1248       1     1339    5.479452050E-04
    1249       1     1340    5.479452050E-04
    1250       1     1341    5.479452050E-04
    1251       1     1342    5.479452050E-04
    1252       1     1343    5.479452050E-04
    1253       1     1344    5.479452050E-04
    1254       1     1345    5.479452050E-04
    1255       1     1346    5.479452050E-04
    1256       1     1347    5.479452050E-04
    1257       1     1348    5.479452050E-04
    1258       1     1349    5.479452050E-04
    1259       1     1352    5.479452050E-04
    1260       1     1353    5.479452050E-04
    1261       1     1354    5.479452050E-04
    1262       1     1355    5.479452050E-04
    1263       1     1356    5.479452050E-04
    1264       1     1357    5.479452050E-04
    1265       1     1358    5.479452050E-04
    1266       1     1359    5.479452050E-04
    1267       1     1360    5.479452050E-04
    1268       1     1361    5.479452050E-04
    1269       1     1362    5.479452050E-04
    1270       1     1363    5.479452050E-04
    1271       1     1364    5.479452050E-04
    1272       1     1365    5.479452050E-04
    1273       1     1366    5.479452050E-04
    1274       1     1367    5.479452050E-04
    1275       1     1368    5.479452050E-04
    1276       1     1369    5.479452050E-04
    1277       1     1370    5.479452050E-04
    1278       1     1371    5.479452050E-04
    1279       1     1372    5.479452050E-04
    1280       1     1373    5.479452050E-04
    1281       1     1374    5.479452050E-04
    1282       1     1375    5.479452050E-04
    1283       1     1376    5.479452050E-04
    1284       1     1377    5.479452050E-04
    1285       1     1378    5.479452050E-04
    1286       1     1379    5.479452050E-04
    1287       1     1380    5.479452050E-04
    1288       1     1381    5.479452050E-04
    1289       1     1382    5.479452050E-04
    1290       1     1383    5.479452050E-04
    1291       1     1384    5.479452050E-04
    1292       1     1385    5.479452050E-04
    1293       1     1386    5.479452050E-04
    1294       1     1387    5.479452050E-04
    1295       1     1388    5.479452050E-04
    1296       1     1389    5.479452050E-04
    1297       1     1390    5.479452050E-04
    1298       1     1391    5.479452050E-04
    1299       1     1392    5.479452050E-04
    1300       1     1393    5.479452050E-04
    1301       1     1394    5.479452050E-04
    1302       1     1395    5.479452050E-04
    1303       1     1396    5.479452050E-04
    1304       1     1397    5.479452050E-04
    1305       1     1398    5.479452050E-04
    1306       1     1399    5.479452050E-04
    1307       1     1400    5.479452050E-04
    1308       1     1401    5.479452050E-04
    1309       1     1402    5.479452050E-04
    1310       1     1403    5.479452050E-04
    1311       1     1404    5.479452050E-04
    1312       1     1405    5.479452050E-04
    1313       1     1406    5.479452050E-04
    1314       1     1407    5.479452050E-04
    1315       1     1408    5.479452050E-04
    1316       1     1409    5.479452050E-04
    1317       1     1410    5.479452050E-04
    1318       1     1411    5.479452050E-04
    1319       1     1412    5.479452050E-04
    1320       1     1413    5.479452050E-04
    1321       1     1414    5.479452050E-04
    1322       1     1415    5.479452050E-04
    1323       1     1416    5.479452050E-04
    1324       1     1417    5.479452050E-04
    1325       1     1418    5.479452050E-04
    1326       1     1419    5.479452050E-04
    1327       1     1420    5.479452050E-04
    1328       1     1421    5.479452050E-04
    1329       1     1422    5.479452050E-04
    1330       1     1423    5.479452050E-04
    1331       1     1424    5.479452050E-04
    1332       1     1425    5.479452050E-04
    1333       1     1426    5.479452050E-04
    1334       1     1427    5.479452050E-04
    1335       1     1428    5.479452050E-04
    1336       1     1429    5.479452050E-04
    1337       1     1430    5.479452050E-04
    1338       1     1431    5.479452050E-04
    1339       1     1432    5.479452050E-04
    1340       1     1433    5.479452050E-04
    1341       1     1434    5.479452050E-04
    1342       1     1435    5.479452050E-04
    1343       1     1436    5.479452050E-04
    1344       1     1437    5.479452050E-04
    1345       1     1438    5.479452050E-04
    1346       1     1439    5.479452050E-04
    1347       1     1440    5.479452050E-04
    1348       1     1441    5.479452050E-04
    1349       1     1442    5.479452050E-04
    1350       1     1443    5.479452050E-04
    1351       1     1444    5.479452050E-04
    1352       1     1445    5.479452050E-04
    1353       1     1446    5.479452050E-04
    1354       1     1447    5.479452050E-04
    1355       1     1448    5.479452050E-04
    1356       1     1449    5.479452050E-04
    1357       1     1450    5.479452050E-04
    1358       1     1451    5.479452050E-04
    1359       1     1452    5.479452050E-04
    1360       1     1453    5.479452050E-04
    1361       1     1454    5.479452050E-04
    1362       1     1455    5.479452050E-04
    1363       1     1456    5.479452050E-04
    1364       1     1457    5.479452050E-04
    1365       1     1458    5.479452050E-04
    1366       1     1459    5.479452050E-04
    1367       1     1460    5.479452050E-04
    1368       1     1461    5.479452050E-04
    1369       1     1462    5.479452050E-04
    1370       1     1463    5.479452050E-04
    1371       1     1464    5.479452050E-04
    1372       1     1465    5.479452050E-04
    1373       1     1466    5.479452050E-04
    1374       1     1467    5.479452050E-04
    1375       1     1468    5.479452050E-04
    1376       1     1469    5.479452050E-04
    1377       1     1470    5.479452050E-04
    1378       1     1471    5.479452050E-04
    1379       1     1472    5.479452050E-04
    1380       1     1473    5.479452050E-04
    1381       1     1474    5.479452050E-04
    1382       1     1475    5.479452050E-04
    1383       1     1476    5.479452050E-04
    1384       1     1477    5.479452050E-04
    1385       1     1478    5.479452050E-04
    1386       1     1479    5.479452050E-04
    1387       1     1480    5.479452050E-04
    1388       1     1481    5.479452050E-04
    1389       1     1482    5.479452050E-04
    1390       1     1483    5.479452050E-04
    1391       1     1484    5.479452050E-04
    1392       1     1485    5.479452050E-04
    1393       1     1486    5.479452050E-04
    1394       1     1488    5.479452050E-04
    1395       1     1489    5.479452050E-04
    1396       1     1490    5.479452050E-04
    1397       1     1491    5.479452050E-04
    1398       1     1492    5.479452050E-04
    1399       1     1493    5.479452050E-04
    1400       1     1494    5.479452050E-04
    1401       1     1495    5.479452050E-04
    1402       1     1496    5.479452050E-04
    1403       1     1497    5.479452050E-04
    1404       1     1498    5.479452050E-04
    1405       1     1499    5.479452050E-04
    1406       1     1500    5.479452050E-04
    1407       1     1501    5.479452050E-04
    1408       1     1502    5.479452050E-04
    1409       1     1503    5.479452050E-04
    1410       1     1504    5.479452050E-04
    1411       1     1505    5.479452050E-04
    1412       1     1506    5.479452050E-04
    1413       1     1507    5.479452050E-04
    1414       1     1508    5.479452050E-04
    1415       1     1509    5.479452050E-04
    1416       1     1510    5.479452050E-04
    1417       1     1511    5.479452050E-04
    1418       1     1512    5.479452050E-04
    1419       1     1513    5.479452050E-04
    1420       1     1514    5.479452050E-04
    1421       1     1515    5.479452050E-04
    1422       1     1516    5.479452050E-04
    1423       1     1517    5.479452050E-04
    1424       1     1518    5.479452050E-04
    1425       1     1519    5.479452050E-04
    1426       1     1520    5.479452050E-04
    1427       1     1521    5.479452050E-04
    1428       1     1522    5.479452050E-04
    1429       1     1523    5.479452050E-04
    1430       1     1524    5.479452050E-04
    1431       1     1525    5.479452050E-04
    1432       1     1526    5.479452050E-04
    1433       1     1527    5.479452050E-04
    1434       1     1528    5.479452050E-04
    1435       1     1529    5.479452050E-04
    1436       1     1530    5.479452050E-04
    1437       1     1531    5.479452050E-04
    1438       1     1532    5.479452050E-04
    1439       1     1533    5.479452050E-04
    1440       1     1534    5.479452050E-04
    1441       1     1535    5.479452050E-04
    1442       1     1536    5.479452050E-04
    1443       1     1537    5.479452050E-04
    1444       1     1538    5.479452050E-04
    1445       1     1539    5.479452050E-04
    1446       1     1540    5.479452050E-04
    1447       1     1541    5.479452050E-04
    1448       1     1542    5.479452050E-04
    1449       1     1543    5.479452050E-04
    1450       1     1544    5.479452050E-04
    1451       1     1545    5.479452050E-04
    1452       1     1546    5.479452050E-04
    1453       1     1547    5.479452050E-04
    1454       1     1548    5.479452050E-04
    1455       1     1549    5.479452050E-04
    1456       1     1550    5.479452050E-04
    1457       1     1551    5.479452050E-04
    1458       1     1552    5.479452050E-04
    1459       1     1553    5.479452050E-04
    1460       1     1554    5.479452050E-04
    1461       1     1555    5.479452050E-04
    1462       1     1556    5.479452050E-04
    1463       1     1557    5.479452050E-04
    1464       1     1558    5.479452050E-04
    1465       1     1559    5.479452050E-04
    1466       1     1560    5.479452050E-04
    1467       1     1561    5.479452050E-04
    1468       1     1562    5.479452050E-04
    1469       1     1563    5.479452050E-04
    1470       1     1564    5.479452050E-04
    1471       1     1565    5.479452050E-04
    1472       1     1566    5.479452050E-04
    1473       1     1567    5.479452050E-04
    1474       1     1568    5.479452050E-04
    1475       1     1569    5.479452050E-04
    1476       1     1570    5.479452050E-04
    1477       1     1571    5.479452050E-04
    1478       1     1572    5.479452050E-04
    1479       1     1573    5.479452050E-04
    1480       1     1574    5.479452050E-04
    1481       1     1575    5.479452050E-04
    1482       1     1576    5.479452050E-04
    1483       1     1577    5.479452050E-04
    1484       1     1578    5.479452050E-04
    1485       1     1579    5.479452050E-04
    1486       1     1580    5.479452050E-04
    1487       1     1581    5.479452050E-04
    1488       1     1582    5.479452050E-04
    1489       1     1583    5.479452050E-04
    1490       1     1584    5.479452050E-04
    1491       1     1585    5.479452050E-04
    1492       1     1586    5.479452050E-04
    1493       1     1587    5.479452050E-04
    1494       1     1588    5.479452050E-04
    1495       1     1589    5.479452050E-04
    1496       1     1590    5.479452050E-04
    1497       1     1591    5.479452050E-04
    1498       1     1592    5.479452050E-04
    1499       1     1593    5.479452050E-04
    1500       1     1594    5.479452050E-04
    1501       1     1595    5.479452050E-04
    1502       1     1596    5.479452050E-04
    1503       1     1597    5.479452050E-04
    1504       1     1598    5.479452050E-04
    1505       1     1599    5.479452050E-04
    1506       1     1600    5.479452050E-04
    1507       1     1601    5.479452050E-04
    1508       1     1602    5.479452050E-04
    1509       1     1603    5.479452050E-04
    1510       1     1604    5.479452050E-04
    1511       1     1605    5.479452050E-04
    1512       1     1606    5.479452050E-04
    1513       1     1607    5.479452050E-04
    1514       1     1608    5.479452050E-04
    1515       1     1609    5.479452050E-04
    1516       1     1610    5.479452050E-04
    1517       1     1611    5.479452050E-04
    1518       1     1612    5.479452050E-04
    1519       1     1613    5.479452050E-04
    1520       1     1614    5.479452050E-04
    1521       1     1615    5.479452050E-04
    1522       1     1616    5.479452050E-04
    1523       1     1617    5.479452050E-04
    1524       1     1618    5.479452050E-04
    1525       1     1619    5.479452050E-04
    1526       1     1622    5.479452050E-04
    1527       1     1623    5.479452050E-04
    1528       1     1624    5.479452050E-04
    1529       1     1625    5.479452050E-04
    1530       1     1626    5.479452050E-04
    1531       1     1627    5.479452050E-04
    1532       1     1628    5.479452050E-04
    1533       1     1629    5.479452050E-04
    1534       1     1630    5.479452050E-04
    1535       1     1631    5.479452050E-04
    1536       1     1632    5.479452050E-04
    1537       1     1633    5.479452050E-04
    1538       1     1634    5.479452050E-04
    1539       1     1635    5.479452050E-04
    1540       1     1636    5.479452050E-04
    1541       1     1637    5.479452050E-04
    1542       1     1638    5.479452050E-04
    1543       1     1639    5.479452050E-04
    1544       1     1640    5.479452050E-04
    1545       1     1641    5.479452050E-04
    1546       1     1642    5.479452050E-04
    1547       1     1643    5.479452050E-04
    1548       1     1644    5.479452050E-04
    1549       1     1645    5.479452050E-04
    1550       1     1646    5.479452050E-04
    1551       1     1647    5.479452050E-04
    1552       1     1648    5.479452050E-04
    1553       1     1649    5.479452050E-04
    1554       1     1650    5.479452050E-04
    1555       1     1651    5.479452050E-04
    1556       1     1652    5.479452050E-04
    1557       1     1653    5.479452050E-04
    1558       1     1654    5.479452050E-04
    1559       1     1655    5.479452050E-04
    1560       1     1656    5.479452050E-04
    1561       1     1657    5.479452050E-04
    1562       1     1658    5.479452050E-04
    1563       1     1659    5.479452050E-04
    1564       1     1660    5.479452050E-04
    1565       1     1661    5.479452050E-04
    1566       1     1662    5.479452050E-04
    1567       1     1663    5.479452050E-04
    1568       1     1664    5.479452050E-04
    1569       1     1665    5.479452050E-04
    1570       1     1666    5.479452050E-04
    1571       1     1667    5.479452050E-04
    1572       1     1668    5.479452050E-04
    1573       1     1669    5.479452050E-04
    1574       1     1670    5.479452050E-04
    1575       1     1671    5.479452050E-04
    1576       1     1672    5.479452050E-04
    1577       1     1673    5.479452050E-04
    1578       1     1674    5.479452050E-04
    1579       1     1675    5.479452050E-04
    1580       1     1676    5.479452050E-04
    1581       1     1677    5.479452050E-04
    1582       1     1678    5.479452050E-04
    1583       1     1679    5.479452050E-04
    1584       1     1680    5.479452050E-04
    1585       1     1681    5.479452050E-04
    1586       1     1682    5.479452050E-04
    1587       1     1683    5.479452050E-04
    1588       1     1684    5.479452050E-04
    1589       1     1685    5.479452050E-04
    1590       1     1686    5.479452050E-04
    1591       1     1687    5.479452050E-04
    1592       1     1688    5.479452050E-04
    1593       1     1689    5.479452050E-04
    1594       1     1690    5.479452050E-04
    1595       1     1691    5.479452050E-04
    1596       1     1692    5.479452050E-04
    1597       1     1693    5.479452050E-04
    1598       1     1694    5.479452050E-04
    1599       1     1695    5.479452050E-04
    1600       1     1696    5.479452050E-04
    1601       1     1697    5.479452050E-04
    1602       1     1698    5.479452050E-04
    1603       1     1699    5.479452050E-04
    1604       1     1700    5.479452050E-04
    1605       1     1701    5.479452050E-04
    1606       1     1702    5.479452050E-04
    1607       1     1703    5.479452050E-04
    1608       1     1704    5.479452050E-04
    1609       1     1705    5.479452050E-04
    1610       1     1706    5.479452050E-04
    1611       1     1707    5.479452050E-04
    1612       1     1708    5.479452050E-04
    1613       1     1709    5.479452050E-04
    1614       1     1710    5.479452050E-04
    1615       1     1711    5.479452050E-04
    1616       1     1712    5.479452050E-04
    1617       1     1713    5.479452050E-04
    1618       1     1714    5.479452050E-04
    1619       1     1715    5.479452050E-04
    1620       1     1716    5.479452050E-04
    1621       1     1717    5.479452050E-04
    1622       1     1718    5.479452050E-04
    1623       1     1719    5.479452050E-04
    1624       1     1720    5.479452050E-04
    1625       1     1721    5.479452050E-04
    1626       1     1722    5.479452050E-04
    1627       1     1723    5.479452050E-04
    1628       1     1724    5.479452050E-04
    1629       1     1725    5.479452050E-04
    1630       1     1726    5.479452050E-04
    1631       1     1727    5.479452050E-04
    1632       1     1728    5.479452050E-04
    1633       1     1729    5.479452050E-04
    1634       1     1730    5.479452050E-04
    1635       1     1731    5.479452050E-04
    1636       1     1732    5.479452050E-04
    1637       1     1733    5.479452050E-04
    1638       1     1734    5.479452050E-04
    1639       1     1735    5.479452050E-04
    1640       1     1736    5.479452050E-04
    1641       1     1737    5.479452050E-04
    1642       1     1738    5.479452050E-04
    1643       1     1739    5.479452050E-04
    1644       1     1740    5.479452050E-04
    1645       1     1741    5.479452050E-04
    1646       1     1742    5.479452050E-04
    1647       1     1743    5.479452050E-04
    1648       1     1744    5.479452050E-04
    1649       1     1745    5.479452050E-04
    1650       1     1746    5.479452050E-04
    1651       1     1747    5.479452050E-04
    1652       1     1748    5.479452050E-04
    1653       1     1749    5.479452050E-04
    1654       1     1750    5.479452050E-04
    1655       1     1751    5.479452050E-04
    1656       1     1752    5.479452050E-04
    1657       1     1753    5.479452050E-04
    1658       1     1754    5.479452050E-04
    1659       1     1755    5.479452050E-04
    1660       1     1756    5.479452050E-04
    1661       1     1757    5.479452050E-04
    1662       1     1758    5.479452050E-04
    1663       1     1759    5.479452050E-04
    1664       1     1760    5.479452050E-04
    1665       1     1761    5.479452050E-04
    1666       1     1762    5.479452050E-04
    1667       1     1763    5.479452050E-04
    1668       1     1766    5.479452050E-04
    1669       1     1767    5.479452050E-04
    1670       1     1768    5.479452050E-04
    1671       1     1769    5.479452050E-04
    1672       1     1770    5.479452050E-04
    1673       1     1771    5.479452050E-04
    1674       1     1772    5.479452050E-04
    1675       1     1773    5.479452050E-04
    1676       1     1774    5.479452050E-04
    1677       1     1775    5.479452050E-04
    1678       1     1776    5.479452050E-04
    1679       1     1777    5.479452050E-04
    1680       1     1778    5.479452050E-04
    1681       1     1779    5.479452050E-04
    1682       1     1780    5.479452050E-04
    1683       1     1781    5.479452050E-04
    1684       1     1782    5.479452050E-04
    1685       1     1783    5.479452050E-04
    1686       1     1784    5.479452050E-04
    1687       1     1785    5.479452050E-04
    1688       1     1786    5.479452050E-04
    1689       1     1787    5.479452050E-04
    1690       1     1788    5.479452050E-04
    1691       1     1789    5.479452050E-04
    1692       1     1790    5.479452050E-04
    1693       1     1791    5.479452050E-04
    1694       1     1792    5.479452050E-04
    1695       1     1793    5.479452050E-04
    1696       1     1794    5.479452050E-04
    1697       1     1795    5.479452050E-04
    1698       1     1796    5.479452050E-04
    1699       1     1797    5.479452050E-04
    1700       1     1798    5.479452050E-04
    1701       1     1799    5.479452050E-04
    1702       1     1800    5.479452050E-04
    1703       1     1801    5.479452050E-04
    1704       1     1802    5.479452050E-04
    1705       1     1803    5.479452050E-04
    1706       1     1804    5.479452050E-04
    1707       1     1805    5.479452050E-04
    1708       1     1806    5.479452050E-04
    1709       1     1807    5.479452050E-04
    1710       1     1808    5.479452050E-04
    1711       1     1809    5.479452050E-04
    1712       1     1810    5.479452050E-04
    1713       1     1811    5.479452050E-04
    1714       1     1812    5.479452050E-04
    1715       1     1813    5.479452050E-04
    1716       1     1814    5.479452050E-04
    1717       1     1815    5.479452050E-04
    1718       1     1816    5.479452050E-04
    1719       1     1817    5.479452050E-04
    1720       1     1818    5.479452050E-04
    1721       1     1819    5.479452050E-04
    1722       1     1820    5.479452050E-04
    1723       1     1821    5.479452050E-04
    1724       1     1822    5.479452050E-04
    1725       1     1823    5.479452050E-04
    1726       1     1824    5.479452050E-04
    1727       1     1825    5.479452050E-04
    1728       1     1826    5.479452050E-04
    1729       1     1827    5.479452050E-04
    1730       1     1828    5.479452050E-04
    1731       1     1829    5.479452050E-04
    1732       1     1830    5.479452050E-04
    1733       1     1831    5.479452050E-04
    1734       1     1832    5.479452050E-04
    1735       1     1833    5.479452050E-04
    1736       1     1834    5.479452050E-04
    1737       1     1835    5.479452050E-04
    1738       1     1836    5.479452050E-04
    1739       1     1837    5.479452050E-04
    1740       1     1838    5.479452050E-04
    1741       1     1839    5.479452050E-04
    1742       1     1840    5.479452050E-04
    1743       1     1841    5.479452050E-04
    1744       1     1842    5.479452050E-04
    1745       1     1843    5.479452050E-04
    1746       1     1844    5.479452050E-04
    1747       1     1845    5.479452050E-04
    1748       1     1846    5.479452050E-04
    1749       1     1847    5.479452050E-04
    1750       1     1848    5.479452050E-04
    1751       1     1849    5.479452050E-04
    1752       1     1850    5.479452050E-04
    1753       1     1851    5.479452050E-04
    1754       1     1852    5.479452050E-04
    1755       1     1853    5.479452050E-04
    1756       1     1854    5.479452050E-04
    1757       1     1855    5.479452050E-04
    1758       1     1856    5.479452050E-04
    1759       1     1857    5.479452050E-04
    1760       1     1858    5.479452050E-04
    1761       1     1859    5.479452050E-04
    1762       1     1860    5.479452050E-04
    1763       1     1861    5.479452050E-04
    1764       1     1862    5.479452050E-04
    1765       1     1863    5.479452050E-04
    1766       1     1864    5.479452050E-04
    1767       1     1865    5.479452050E-04
    1768       1     1866    5.479452050E-04
    1769       1     1867    5.479452050E-04
    1770       1     1868    5.479452050E-04
    1771       1     1869    5.479452050E-04
    1772       1     1870    5.479452050E-04
    1773       1     1871    5.479452050E-04
    1774       1     1872    5.479452050E-04
    1775       1     1873    5.479452050E-04
    1776       1     1874    5.479452050E-04
    1777       1     1875    5.479452050E-04
    1778       1     1876    5.479452050E-04
    1779       1     1877    5.479452050E-04
    1780       1     1878    5.479452050E-04
    1781       1     1879    5.479452050E-04
    1782       1     1880    5.479452050E-04
    1783       1     1881    5.479452050E-04
    1784       1     1882    5.479452050E-04
    1785       1     1883    5.479452050E-04
    1786       1     1884    5.479452050E-04
    1787       1     1885    5.479452050E-04
    1788       1     1886    5.479452050E-04
    1789       1     1887    5.479452050E-04
    1790       1     1888    5.479452050E-04
    1791       1     1889    5.479452050E-04
    1792       1     1890    5.479452050E-04
    1793       1     1891    5.479452050E-04
    1794       1     1892    5.479452050E-04
    1795       1     1893    5.479452050E-04
    1796       1     1894    5.479452050E-04
    1797       1     1897    5.479452050E-04
    1798       1     1898    5.479452050E-04
    1799       1     1899    5.479452050E-04
    1800       1     1900    5.479452050E-04
    1801       1     1901    5.479452050E-04
    1802       1     1902    5.479452050E-04
    1803       1     1903    5.479452050E-04
    1804       1     1904    5.479452050E-04
    1805       1     1905    5.479452050E-04
    1806       1     1906    5.479452050E-04
    1807       1     1907    5.479452050E-04
    1808       1     1908    5.479452050E-04
    1809       1     1909    5.479452050E-04
    1810       1     1910    5.479452050E-04
    1811       1     1911    5.479452050E-04
    1812       1     1912    5.479452050E-04
    1813       1     1913    5.479452050E-04
    1814       1     1914    5.479452050E-04
    1815       1     1915    5.479452050E-04
    1816       1     1916    5.479452050E-04
    1817       1     1917    5.479452050E-04
    1818       1     1918    5.479452050E-04
    1819       1     1919    5.479452050E-04
    1820       1     1920    5.479452050E-04
    1821       1     1921    5.479452050E-04
    1822       1     1922    5.479452050E-04
    1823       1     1923    5.479452050E-04
    1824       1     1924    5.479452050E-04
    1825       1     1925    5.479452050E-04
    1826       1     1926    5.479452050E-04
    1827       1     1927    5.479452050E-04
    1828       1     1928    5.479452050E-04
    1829       1     1929    5.479452050E-04
    1830       1     1930    5.479452050E-04
    1831       1     1931    5.479452050E-04
    1832       1     1932    5.479452050E-04
    1833       1     1933    5.479452050E-04
    1834       1     1934    5.479452050E-04
    1835       1     1935    5.479452050E-04
    1836       1     1936    5.479452050E-04
    1837       1     1937    5.479452050E-04
    1838       1     1938    5.479452050E-04
    1839       1     1939    5.479452050E-04
    1840       1     1940    5.479452050E-04
    1841       1     1941    5.479452050E-04
    1842       1     1942    5.479452050E-04
    1843       1     1943    5.479452050E-04
    1844       1     1944    5.479452050E-04
    1845       1     1945    5.479452050E-04
    1846       1     1946    5.479452050E-04
    1847       1     1947    5.479452050E-04
    1848       1     1948    5.479452050E-04
    1849       1     1949    5.479452050E-04
    1850       1     1950    5.479452050E-04
    1851       1     1951    5.479452050E-04
    1852       1     1952    5.479452050E-04
    1853       1     1953    5.479452050E-04
    1854       1     1954    5.479452050E-04
    1855       1     1955    5.479452050E-04
    1856       1     1956    5.479452050E-04
    1857       1     1957    5.479452050E-04
    1858       1     1958    5.479452050E-04
    1859       1     1959    5.479452050E-04
    1860       1     1960    5.479452050E-04
    1861       1     1961    5.479452050E-04
    1862       1     1962    5.479452050E-04
    1863       1     1963    5.479452050E-04
    1864       1     1964    5.479452050E-04
    1865       1     1965    5.479452050E-04
    1866       1     1966    5.479452050E-04
    1867       1     1967    5.479452050E-04
    1868       1     1968    5.479452050E-04
    1869       1     1969    5.479452050E-04
    1870       1     1970    5.479452050E-04
    1871       1     1971    5.479452050E-04
    1872       1     1972    5.479452050E-04
    1873       1     1973    5.479452050E-04
    1874       1     1974    5.479452050E-04
    1875       1     1975    5.479452050E-04
    1876       1     1976    5.479452050E-04
    1877       1     1977    5.479452050E-04
    1878       1     1978    5.479452050E-04
    1879       1     1979    5.479452050E-04
    1880       1     1980    5.479452050E-04
    1881       1     1981    5.479452050E-04
    1882       1     1982    5.479452050E-04
    1883       1     1983    5.479452050E-04
    1884       1     1984    5.479452050E-04
    1885       1     1985    5.479452050E-04
    1886       1     1986    5.479452050E-04
    1887       1     1987    5.479452050E-04
    1888       1     1988    5.479452050E-04
    1889       1     1989    5.479452050E-04
    1890       1     1990    5.479452050E-04
    1891       1     1991    5.479452050E-04
    1892       1     1992    5.479452050E-04
    1893       1     1993    5.479452050E-04
    1894       1     1994    5.479452050E-04
    1895       1     1995    5.479452050E-04
    1896       1     1996    5.479452050E-04
    1897       1     1997    5.479452050E-04
    1898       1     1998    5.479452050E-04
    1899       1     1999    5.479452050E-04
    1900       1     2000    5.479452050E-04
    1901       1     2001    5.479452050E-04
    1902       1     2002    5.479452050E-04
    1903       1     2003    5.479452050E-04
    1904       1     2004    5.479452050E-04
    1905       1     2005    5.479452050E-04
    1906       1     2006    5.479452050E-04
    1907       1     2007    5.479452050E-04
    1908       1     2008    5.479452050E-04
    1909       1     2009    5.479452050E-04
    1910       1     2010    5.479452050E-04
    1911       1     2011    5.479452050E-04
    1912       1     2012    5.479452050E-04
    1913       1     2013    5.479452050E-04
    1914       1     2014    5.479452050E-04
    1915       1     2015    5.479452050E-04
    1916       1     2016    5.479452050E-04
    1917       1     2017    5.479452050E-04
    1918       1     2018    5.479452050E-04
    1919       1     2019    5.479452050E-04
    1920       1     2020    5.479452050E-04
    1921       1     2021    5.479452050E-04
    1922       1     2022    5.479452050E-04
    1923       1     2023    5.479452050E-04
    1924       1     2024    5.479452050E-04
    1925       1     2025    5.479452050E-04
    1926       1     2026    5.479452050E-04
    1927       1     2027    5.479452050E-04
    1928       1     2028    5.479452050E-04
    1929       1     2029    5.479452050E-04
    1930       1     2030    5.479452050E-04
    1931       1     2031    5.479452050E-04
    1932       1     2032    5.479452050E-04
    1933       1     2033    5.479452050E-04
    1934       1     2034    5.479452050E-04
    1935       1     2035    5.479452050E-04
    1936       1     2036    5.479452050E-04
    1937       1     2037    5.479452050E-04
    1938       1     2038    5.479452050E-04
    1939       1     2039    5.479452050E-04
    1940       1     2042    5.479452050E-04
    1941       1     2043    5.479452050E-04
    1942       1     2044    5.479452050E-04
    1943       1     2045    5.479452050E-04
    1944       1     2046    5.479452050E-04
    1945       1     2047    5.479452050E-04
    1946       1     2048    5.479452050E-04
    1947       1     2049    5.479452050E-04
    1948       1     2050    5.479452050E-04
    1949       1     2051    5.479452050E-04
    1950       1     2052    5.479452050E-04
    1951       1     2053    5.479452050E-04
    1952       1     2054    5.479452050E-04
    1953       1     2055    5.479452050E-04
    1954       1     2056    5.479452050E-04
    1955       1     2057    5.479452050E-04
    1956       1     2058    5.479452050E-04
    1957       1     2059    5.479452050E-04
    1958       1     2060    5.479452050E-04
    1959       1     2061    5.479452050E-04
    1960       1     2062    5.479452050E-04
    1961       1     2063    5.479452050E-04
    1962       1     2064    5.479452050E-04
    1963       1     2065    5.479452050E-04
    1964       1     2066    5.479452050E-04
    1965       1     2067    5.479452050E-04
    1966       1     2068    5.479452050E-04
    1967       1     2069    5.479452050E-04
    1968       1     2070    5.479452050E-04
    1969       1     2071    5.479452050E-04
    1970       1     2072    5.479452050E-04
    1971       1     2073    5.479452050E-04
    1972       1     2074    5.479452050E-04
    1973       1     2075    5.479452050E-04
    1974       1     2076    5.479452050E-04
    1975       1     2077    5.479452050E-04
    1976       1     2078    5.479452050E-04
    1977       1     2079    5.479452050E-04
    1978       1     2080    5.479452050E-04
    1979       1     2081    5.479452050E-04
    1980       1     2082    5.479452050E-04
    1981       1     2083    5.479452050E-04
    1982       1     2084    5.479452050E-04
    1983       1     2085    5.479452050E-04
    1984       1     2086    5.479452050E-04
    1985       1     2087    5.479452050E-04
    1986       1     2088    5.479452050E-04
    1987       1     2089    5.479452050E-04
    1988       1     2090    5.479452050E-04
    1989       1     2091    5.479452050E-04
    1990       1     2092    5.479452050E-04
    1991       1     2093    5.479452050E-04
    1992       1     2094    5.479452050E-04
    1993       1     2095    5.479452050E-04
    1994       1     2096    5.479452050E-04
    1995       1     2097    5.479452050E-04
    1996       1     2098    5.479452050E-04
    1997       1     2099    5.479452050E-04
    1998       1     2100    5.479452050E-04
    1999       1     2101    5.479452050E-04
    2000       1     2102    5.479452050E-04
    2001       1     2103    5.479452050E-04
    2002       1     2104    5.479452050E-04
    2003       1     2105    5.479452050E-04
    2004       1     2106    5.479452050E-04
    2005       1     2107    5.479452050E-04
    2006       1     2108    5.479452050E-04
    2007       1     2109    5.479452050E-04
    2008       1     2110    5.479452050E-04
    2009       1     2111    5.479452050E-04
    2010       1     2112    5.479452050E-04
    2011       1     2113    5.479452050E-04
    2012       1     2114    5.479452050E-04
    2013       1     2115    5.479452050E-04
    2014       1     2116    5.479452050E-04
    2015       1     2117    5.479452050E-04
    2016       1     2118    5.479452050E-04
    2017       1     2119    5.479452050E-04
    2018       1     2120    5.479452050E-04
    2019       1     2121    5.479452050E-04
    2020       1     2122    5.479452050E-04
    2021       1     2123    5.479452050E-04
    2022       1     2124    5.479452050E-04
    2023       1     2125    5.479452050E-04
    2024       1     2126    5.479452050E-04
    2025       1     2127    5.479452050E-04
    2026       1     2128    5.479452050E-04
    2027       1     2129    5.479452050E-04
    2028       1     2130    5.479452050E-04
    2029       1     2131    5.479452050E-04
    2030       1     2132    5.479452050E-04
    2031       1     2133    5.479452050E-04
    2032       1     2134    5.479452050E-04
    2033       1     2135    5.479452050E-04
    2034       1     2136    5.479452050E-04
    2035       1     2137    5.479452050E-04
    2036       1     2138    5.479452050E-04
    2037       1     2141    5.479452050E-04
    2038       1     2142    5.479452050E-04
    2039       1     2143    5.479452050E-04
    2040       1     2144    5.479452050E-04
    2041       1     2145    5.479452050E-04
    2042       1     2146    5.479452050E-04
    2043       1     2147    5.479452050E-04
    2044       1     2148    5.479452050E-04
    2045       1     2149    5.479452050E-04
    2046       1     2150    5.479452050E-04
    2047       1     2151    5.479452050E-04
    2048       1     2152    5.479452050E-04
    2049       1     2153    5.479452050E-04
    2050       1     2154    5.479452050E-04
    2051       1     2155    5.479452050E-04
    2052       1     2156    5.479452050E-04
    2053       1     2157    5.479452050E-04
    2054       1     2158    5.479452050E-04
    2055       1     2159    5.479452050E-04
    2056       1     2160    5.479452050E-04
    2057       1     2161    5.479452050E-04
    2058       1     2162    5.479452050E-04
    2059       1     2163    5.479452050E-04
    2060       1     2164    5.479452050E-04
    2061       1     2165    5.479452050E-04
    2062       1     2166    5.479452050E-04
    2063       1     2167    5.479452050E-04
    2064       1     2168    5.479452050E-04
    2065       1     2169    5.479452050E-04
    2066       1     2170    5.479452050E-04
    2067       1     2171    5.479452050E-04
    2068       1     2172    5.479452050E-04
    2069       1     2173    5.479452050E-04
    2070       1     2174    5.479452050E-04
    2071       1     2175    5.479452050E-04
    2072       1     2176    5.479452050E-04
    2073       1     2177    5.479452050E-04
    2074       1     2178    5.479452050E-04
    2075       1     2179    5.479452050E-04
    2076       1     2180    5.479452050E-04
    2077       1     2181    5.479452050E-04
    2078       1     2182    5.479452050E-04
    2079       1     2183    5.479452050E-04
    2080       1     2184    5.479452050E-04
    2081       1     2185    5.479452050E-04
    2082       1     2186    5.479452050E-04
    2083       1     2187    5.479452050E-04
    2084       1     2188    5.479452050E-04
    2085       1     2189    5.479452050E-04
    2086       1     2190    5.479452050E-04
    2087       1     2191    5.479452050E-04
    2088       1     2192    5.479452050E-04
    2089       1     2193    5.479452050E-04
    2090       1     2194    5.479452050E-04
    2091       1     2195    5.479452050E-04
    2092       1     2196    5.479452050E-04
    2093       1     2197    5.479452050E-04
    2094       1     2198    5.479452050E-04
    2095       1     2199    5.479452050E-04
    2096       1     2200    5.479452050E-04
    2097       1     2201    5.479452050E-04
    2098       1     2202    5.479452050E-04
    2099       1     2203    5.479452050E-04
    2100       1     2204    5.479452050E-04
    2101       1     2205    5.479452050E-04
    2102       1     2206    5.479452050E-04
    2103       1     2207    5.479452050E-04
    2104       1     2208    5.479452050E-04
    2105       1     2209    5.479452050E-04
    2106       1     2210    5.479452050E-04
    2107       1     2211    5.479452050E-04
    2108       1     2212    5.479452050E-04
    2109       1     2213    5.479452050E-04
    2110       1     2214    5.479452050E-04
    2111       1     2215    5.479452050E-04
    2112       1     2216    5.479452050E-04
    2113       1     2217    5.479452050E-04
    2114       1     2218    5.479452050E-04
    2115       1     2219    5.479452050E-04
    2116       1     2220    5.479452050E-04
    2117       1     2221    5.479452050E-04
    2118       1     2224    5.479452050E-04
    2119       1     2225    5.479452050E-04
    2120       1     2226    5.479452050E-04
    2121       1     2227    5.479452050E-04
    2122       1     2228    5.479452050E-04
    2123       1     2229    5.479452050E-04
    2124       1     2230    5.479452050E-04
    2125       1     2231    5.479452050E-04
    2126       1     2232    5.479452050E-04
    2127       1     2233    5.479452050E-04
    2128       1     2234    5.479452050E-04
    2129       1     2235    5.479452050E-04
    2130       1     2236    5.479452050E-04
    2131       1     2237    5.479452050E-04
    2132       1     2238    5.479452050E-04
    2133       1     2239    5.479452050E-04
    2134       1     2240    5.479452050E-04
    2135       1     2241    5.479452050E-04
    2136       1     2242    5.479452050E-04
    2137       1     2243    5.479452050E-04
    2138       1     2244    5.479452050E-04
    2139       1     2245    5.479452050E-04
    2140       1     2246    5.479452050E-04
    2141       1     2247    5.479452050E-04
    2142       1     2248    5.479452050E-04
    2143       1     2249    5.479452050E-04
    2144       1     2250    5.479452050E-04
    2145       1     2251    5.479452050E-04
    2146       1     2252    5.479452050E-04
    2147       1     2253    5.479452050E-04
    2148       1     2254    5.479452050E-04
    2149       1     2255    5.479452050E-04
    2150       1     2256    5.479452050E-04
    2151       1     2257    5.479452050E-04
    2152       1     2258    5.479452050E-04
    2153       1     2259    5.479452050E-04
    2154       1     2260    5.479452050E-04
    2155       1     2261    5.479452050E-04
    2156       1     2262    5.479452050E-04
    2157       1     2263    5.479452050E-04
    2158       1     2264    5.479452050E-04
    2159       1     2265    5.479452050E-04
    2160       1     2266    5.479452050E-04
    2161       1     2267    5.479452050E-04
    2162       1     2268    5.479452050E-04
    2163       1     2269    5.479452050E-04
    2164       1     2270    5.479452050E-04
    2165       1     2271    5.479452050E-04
    2166       1     2272    5.479452050E-04
    2167       1     2273    5.479452050E-04
    2168       1     2274    5.479452050E-04
    2169       1     2275    5.479452050E-04
    2170       1     2276    5.479452050E-04
    2171       1     2277    5.479452050E-04
    2172       1     2278    5.479452050E-04
    2173       1     2279    5.479452050E-04
    2174       1     2280    5.479452050E-04
    2175       1     2281    5.479452050E-04
    2176       1     2282    5.479452050E-04
    2177       1     2283    5.479452050E-04
    2178       1     2284    5.479452050E-04
    2179       1     2285    5.479452050E-04
    2180       1     2286    5.479452050E-04
    2181       1     2287    5.479452050E-04
    2182       1     2288    5.479452050E-04
    2183       1     2289    5.479452050E-04
    2184       1     2290    5.479452050E-04
    2185       1     2291    5.479452050E-04
    2186       1     2292    5.479452050E-04
    2187       1     2293    5.479452050E-04
    2188       1     2294    5.479452050E-04
    2189       1     2295    5.479452050E-04
    2190       1     2296    5.479452050E-04
    2191       1     2297    5.479452050E-04
    2192       1     2298    5.479452050E-04
    2193       1     2299    5.479452050E-04
    2194       1     2300    5.479452050E-04
    2195       1     2301    5.479452050E-04
    2196       1     2302    5.479452050E-04
    2197       1     2303    5.479452050E-04
    2198       1     2304    5.479452050E-04
    2199       1     2305    5.479452050E-04
    2200       1     2306    5.479452050E-04
    2201       1     2307    5.479452050E-04
    2202       1     2308    5.479452050E-04
    2203       1     2309    5.479452050E-04
    2204       1     2312    5.479452050E-04
    2205       1     2313    5.479452050E-04
    2206       1     2314    5.479452050E-04
    2207       1     2315    5.479452050E-04
    2208       1     2316    5.479452050E-04
    2209       1     2317    5.479452050E-04
    2210       1     2318    5.479452050E-04
    2211       1     2319    5.479452050E-04
    2212       1     2320    5.479452050E-04
    2213       1     2321    5.479452050E-04
    2214       1     2322    5.479452050E-04
    2215       1     2323    5.479452050E-04
    2216       1     2324    5.479452050E-04
    2217       1     2325    5.479452050E-04
    2218       1     2326    5.479452050E-04
    2219       1     2327    5.479452050E-04
    2220       1     2328    5.479452050E-04
    2221       1     2329    5.479452050E-04
    2222       1     2330    5.479452050E-04
    2223       1     2331    5.479452050E-04
    2224       1     2332    5.479452050E-04
    2225       1     2333    5.479452050E-04
    2226       1     2334    5.479452050E-04
    2227       1     2335    5.479452050E-04
    2228       1     2336    5.479452050E-04
    2229       1     2337    5.479452050E-04
    2230       1     2338    5.479452050E-04
    2231       1     2339    5.479452050E-04
    2232       1     2340    5.479452050E-04
    2233       1     2341    5.479452050E-04
    2234       1     2342    5.479452050E-04
    2235       1     2343    5.479452050E-04
    2236       1     2344    5.479452050E-04
    2237       1     2345    5.479452050E-04
    2238       1     2346    5.479452050E-04
    2239       1     2347    5.479452050E-04
    2240       1     2348    5.479452050E-04
    2241       1     2349    5.479452050E-04
    2242       1     2350    5.479452050E-04
    2243       1     2351    5.479452050E-04
    2244       1     2352    5.479452050E-04
    2245       1     2353    5.479452050E-04
    2246       1     2354    5.479452050E-04
    2247       1     2355    5.479452050E-04
    2248       1     2356    5.479452050E-04
    2249       1     2357    5.479452050E-04
    2250       1     2358    5.479452050E-04
    2251       1     2359    5.479452050E-04
    2252       1     2360    5.479452050E-04
    2253       1     2361    5.479452050E-04
    2254       1     2362    5.479452050E-04
    2255       1     2363    5.479452050E-04
    2256       1     2364    5.479452050E-04
    2257       1     2365    5.479452050E-04
    2258       1     2366    5.479452050E-04
    2259       1     2367    5.479452050E-04
    2260       1     2368    5.479452050E-04
    2261       1     2369    5.479452050E-04
    2262       1     2370    5.479452050E-04
    2263       1     2371    5.479452050E-04
    2264       1     2372    5.479452050E-04
    2265       1     2373    5.479452050E-04
    2266       1     2374    5.479452050E-04
    2267       1     2375    5.479452050E-04
    2268       1     2376    5.479452050E-04
    2269       1     2377    5.479452050E-04
    2270       1     2378    5.479452050E-04
    2271       1     2379    5.479452050E-04
    2272       1     2380    5.479452050E-04
    2273       1     2381    5.479452050E-04
    2274       1     2382    5.479452050E-04
    2275       1     2383    5.479452050E-04
    2276       1     2384    5.479452050E-04
    2277       1     2385    5.479452050E-04
    2278       1     2386    5.479452050E-04
    2279       1     2387    5.479452050E-04
    2280       1     2388    5.479452050E-04
    2281       1     2389    5.479452050E-04
    2282       1     2390    5.479452050E-04
    2283       1     2391    5.479452050E-04
    2284       1     2392    5.479452050E-04
    2285       1     2393    5.479452050E-04
    2286       1     2396    5.479452050E-04
    2287       1     2397    5.479452050E-04
    2288       1     2398    5.479452050E-04
    2289       1     2399    5.479452050E-04
    2290       1     2400    5.479452050E-04
    2291       1     2401    5.479452050E-04
    2292       1     2402    5.479452050E-04
    2293       1     2403    5.479452050E-04
    2294       1     2404    5.479452050E-04
    2295       1     2405    5.479452050E-04
    2296       1     2406    5.479452050E-04
    2297       1     2407    5.479452050E-04
    2298       1     2408    5.479452050E-04
    2299       1     2409    5.479452050E-04
    2300       1     2410    5.479452050E-04
    2301       1     2411    5.479452050E-04
    2302       1     2412    5.479452050E-04
    2303       1     2413    5.479452050E-04
    2304       1     2414    5.479452050E-04
    2305       1     2415    5.479452050E-04
    2306       1     2416    5.479452050E-04
    2307       1     2417    5.479452050E-04
    2308       1     2418    5.479452050E-04
    2309       1     2419    5.479452050E-04
    2310       1     2420    5.479452050E-04
    2311       1     2421    5.479452050E-04
    2312       1     2422    5.479452050E-04
    2313       1     2423    5.479452050E-04
    2314       1     2424    5.479452050E-04
    2315       1     2425    5.479452050E-04
    2316       1     2426    5.479452050E-04
    2317       1     2427    5.479452050E-04
    2318       1     2428    5.479452050E-04
    2319       1     2429    5.479452050E-04
    2320       1     2430    5.479452050E-04
    2321       1     2431    5.479452050E-04
    2322       1     2432    5.479452050E-04
    2323       1     2433    5.479452050E-04
    2324       1     2434    5.479452050E-04
    2325       1     2435    5.479452050E-04
    2326       1     2436    5.479452050E-04
    2327       1     2437    5.479452050E-04
    2328       1     2438    5.479452050E-04
    2329       1     2439    5.479452050E-04
    2330       1     2440    5.479452050E-04
    2331       1     2441    5.479452050E-04
    2332       1     2442    5.479452050E-04
    2333       1     2443    5.479452050E-04
    2334       1     2444    5.479452050E-04
    2335       1     2445    5.479452050E-04
    2336       1     2446    5.479452050E-04
    2337       1     2447    5.479452050E-04
    2338       1     2448    5.479452050E-04
    2339       1     2449    5.479452050E-04
    2340       1     2450    5.479452050E-04
    2341       1     2451    5.479452050E-04
    2342       1     2452    5.479452050E-04
    2343       1     2453    5.479452050E-04
    2344       1     2454    5.479452050E-04
    2345       1     2455    5.479452050E-04
    2346       1     2456    5.479452050E-04
    2347       1     2457    5.479452050E-04
    2348       1     2458    5.479452050E-04
    2349       1     2459    5.479452050E-04
    2350       1     2460    5.479452050E-04
    2351       1     2461    5.479452050E-04
    2352       1     2462    5.479452050E-04
    2353       1     2463    5.479452050E-04
    2354       1     2464    5.479452050E-04
    2355       1     2465    5.479452050E-04
    2356       1     2466    5.479452050E-04
    2357       1     2467    5.479452050E-04
    2358       1     2468    5.479452050E-04
    2359       1     2469    5.479452050E-04
    2360       1     2470    5.479452050E-04
    2361       1     2471    5.479452050E-04
    2362       1     2472    5.479452050E-04
    2363       1     2473    5.479452050E-04
    2364       1     2474    5.479452050E-04
    2365       1     2475    5.479452050E-04
    2366       1     2476    5.479452050E-04
    2367       1     2477    5.479452050E-04
    2368       1     2478    5.479452050E-04
    2369       1     2479    5.479452050E-04
    2370       1     2482    5.479452050E-04
    2371       1     2483    5.479452050E-04
    2372       1     2484    5.479452050E-04
    2373       1     2485    5.479452050E-04
    2374       1     2486    5.479452050E-04
    2375       1     2487    5.479452050E-04
    2376       1     2488    5.479452050E-04
    2377       1     2489    5.479452050E-04
    2378       1     2490    5.479452050E-04
    2379       1     2491    5.479452050E-04
    2380       1     2492    5.479452050E-04
    2381       1     2493    5.479452050E-04
    2382       1     2494    5.479452050E-04
    2383       1     2495    5.479452050E-04
    2384       1     2496    5.479452050E-04
    2385       1     2497    5.479452050E-04
    2386       1     2498    5.479452050E-04
    2387       1     2499    5.479452050E-04
    2388       1     2500    5.479452050E-04
    2389       1     2501    5.479452050E-04
    2390       1     2502    5.479452050E-04
    2391       1     2503    5.479452050E-04
    2392       1     2504    5.479452050E-04
    2393       1     2505    5.479452050E-04
    2394       1     2506    5.479452050E-04
    2395       1     2507    5.479452050E-04
    2396       1     2508    5.479452050E-04
    2397       1     2509    5.479452050E-04
    2398       1     2510    5.479452050E-04
    2399       1     2511    5.479452050E-04
    2400       1     2512    5.479452050E-04
    2401       1     2513    5.479452050E-04
    2402       1     2514    5.479452050E-04
    2403       1     2515    5.479452050E-04
    2404       1     2516    5.479452050E-04
    2405       1     2517    5.479452050E-04
    2406       1     2518    5.479452050E-04
    2407       1     2519    5.479452050E-04
    2408       1     2520    5.479452050E-04
    2409       1     2521    5.479452050E-04
    2410       1     2522    5.479452050E-04
    2411       1     2523    5.479452050E-04
    2412       1     2524    5.479452050E-04
    2413       1     2525    5.479452050E-04
    2414       1     2526    5.479452050E-04
    2415       1     2527    5.479452050E-04
    2416       1     2528    5.479452050E-04
    2417       1     2529    5.479452050E-04
    2418       1     2530    5.479452050E-04
    2419       1     2531    5.479452050E-04
    2420       1     2532    5.479452050E-04
    2421       1     2533    5.479452050E-04
    2422       1     2534    5.479452050E-04
    2423       1     2535    5.479452050E-04
    2424       1     2536    5.479452050E-04
    2425       1     2537    5.479452050E-04
    2426       1     2538    5.479452050E-04
    2427       1     2539    5.479452050E-04
    2428       1     2540    5.479452050E-04
    2429       1     2541    5.479452050E-04
    2430       1     2542    5.479452050E-04
    2431       1     2543    5.479452050E-04
    2432       1     2544    5.479452050E-04
    2433       1     2545    5.479452050E-04
    2434       1     2546    5.479452050E-04
    2435       1     2547    5.479452050E-04
    2436       1     2548    5.479452050E-04
    2437       1     2549    5.479452050E-04
    2438       1     2550    5.479452050E-04
    2439       1     2551    5.479452050E-04
    2440       1     2552    5.479452050E-04
    2441       1     2553    5.479452050E-04
    2442       1     2554    5.479452050E-04
    2443       1     2555    5.479452050E-04
    2444       1     2556    5.479452050E-04
    2445       1     2557    5.479452050E-04
    2446       1     2558    5.479452050E-04
    2447       1     2559    5.479452050E-04
    2448       1     2560    5.479452050E-04
    2449       1     2561    5.479452050E-04
    2450       1     2562    5.479452050E-04
    2451       1     2563    5.479452050E-04
    2452       1     2564    5.479452050E-04
    2453       1     2567    5.479452050E-04
    2454       1     2568    5.479452050E-04
    2455       1     2569    5.479452050E-04
    2456       1     2570    5.479452050E-04
    2457       1     2571    5.479452050E-04
    2458       1     2572    5.479452050E-04
    2459       1     2573    5.479452050E-04
    2460       1     2574    5.479452050E-04
    2461       1     2575    5.479452050E-04
    2462       1     2576    5.479452050E-04
    2463       1     2577    5.479452050E-04
    2464       1     2578    5.479452050E-04
    2465       1     2579    5.479452050E-04
    2466       1     2580    5.479452050E-04
    2467       1     2581    5.479452050E-04
    2468       1     2582    5.479452050E-04
    2469       1     2583    5.479452050E-04
    2470       1     2584    5.479452050E-04
    2471       1     2585    5.479452050E-04
    2472       1     2586    5.479452050E-04
    2473       1     2587    5.479452050E-04
    2474       1     2588    5.479452050E-04
    2475       1     2589    5.479452050E-04
    2476       1     2590    5.479452050E-04
    2477       1     2591    5.479452050E-04
    2478       1     2592    5.479452050E-04
    2479       1     2593    5.479452050E-04
    2480       1     2594    5.479452050E-04
    2481       1     2595    5.479452050E-04
    2482       1     2596    5.479452050E-04
    2483       1     2597    5.479452050E-04
    2484       1     2598    5.479452050E-04
    2485       1     2599    5.479452050E-04
    2486       1     2600    5.479452050E-04
    2487       1     2601    5.479452050E-04
    2488       1     2602    5.479452050E-04
    2489       1     2603    5.479452050E-04
    2490       1     2604    5.479452050E-04
    2491       1     2605    5.479452050E-04
    2492       1     2606    5.479452050E-04
    2493       1     2607    5.479452050E-04
    2494       1     2608    5.479452050E-04
    2495       1     2609    5.479452050E-04
    2496       1     2610    5.479452050E-04
    2497       1     2611    5.479452050E-04
    2498       1     2612    5.479452050E-04
    2499       1     2613    5.479452050E-04
    2500       1     2614    5.479452050E-04
    2501       1     2615    5.479452050E-04
    2502       1     2616    5.479452050E-04
    2503       1     2617    5.479452050E-04
    2504       1     2618    5.479452050E-04
    2505       1     2619    5.479452050E-04
    2506       1     2620    5.479452050E-04
    2507       1     2621    5.479452050E-04
    2508       1     2622    5.479452050E-04
    2509       1     2623    5.479452050E-04
    2510       1     2624    5.479452050E-04
    2511       1     2625    5.479452050E-04
    2512       1     2626    5.479452050E-04
    2513       1     2627    5.479452050E-04
    2514       1     2628    5.479452050E-04
    2515       1     2629    5.479452050E-04
    2516       1     2630    5.479452050E-04
    2517       1     2631    5.479452050E-04
    2518       1     2632    5.479452050E-04
    2519       1     2633    5.479452050E-04
    2520       1     2634    5.479452050E-04
    2521       1     2635    5.479452050E-04
    2522       1     2636    5.479452050E-04
    2523       1     2637    5.479452050E-04
    2524       1     2638    5.479452050E-04
    2525       1     2639    5.479452050E-04
    2526       1     2640    5.479452050E-04
    2527       1     2641    5.479452050E-04
    2528       1     2642    5.479452050E-04
    2529       1     2643    5.479452050E-04
    2530       1     2644    5.479452050E-04
    2531       1     2645    5.479452050E-04
    2532       1     2646    5.479452050E-04
    2533       1     2647    5.479452050E-04
    2534       1     2648    5.479452050E-04
    2535       1     2649    5.479452050E-04
    2536       1     2650    5.479452050E-04
    2537       1     2651    5.479452050E-04
    2538       1     2652    5.479452050E-04
    2539       1     2653    5.479452050E-04
    2540       1     2654    5.479452050E-04
    2541       1     2655    5.479452050E-04
    2542       1     2656    5.479452050E-04
    2543       1     2657    5.479452050E-04
    2544       1     2658    5.479452050E-04
    2545       1     2659    5.479452050E-04
    2546       1     2660    5.479452050E-04
    2547       1     2661    5.479452050E-04
    2548       1     2662    5.479452050E-04
    2549       1     2663    5.479452050E-04
    2550       1     2664    5.479452050E-04
    2551       1     2665    5.479452050E-04
    2552       1     2666    5.479452050E-04
    2553       1     2669    5.479452050E-04
    2554       1     2670    5.479452050E-04
    2555       1     2671    5.479452050E-04
    2556       1     2672    5.479452050E-04
    2557       1     2673    5.479452050E-04
    2558       1     2674    5.479452050E-04
    2559       1     2675    5.479452050E-04
    2560       1     2676    5.479452050E-04
    2561       1     2677    5.479452050E-04
    2562       1     2678    5.479452050E-04
    2563       1     2679    5.479452050E-04
    2564       1     2680    5.479452050E-04
    2565       1     2681    5.479452050E-04
    2566       1     2682    5.479452050E-04
    2567       1     2683    5.479452050E-04
    2568       1     2684    5.479452050E-04
    2569       1     2685    5.479452050E-04
    2570       1     2686    5.479452050E-04
    2571       1     2687    5.479452050E-04
    2572       1     2688    5.479452050E-04
    2573       1     2689    5.479452050E-04
    2574       1     2690    5.479452050E-04
    2575       1     2691    5.479452050E-04
    2576       1     2692    5.479452050E-04
    2577       1     2693    5.479452050E-04
    2578       1     2694    5.479452050E-04
    2579       1     2695    5.479452050E-04
    2580       1     2696    5.479452050E-04
    2581       1     2697    5.479452050E-04
    2582       1     2698    5.479452050E-04
    2583       1     2699    5.479452050E-04
    2584       1     2700    5.479452050E-04
    2585       1     2701    5.479452050E-04
    2586       1     2702    5.479452050E-04
    2587       1     2703    5.479452050E-04
    2588       1     2704    5.479452050E-04
    2589       1     2705    5.479452050E-04
    2590       1     2706    5.479452050E-04
    2591       1     2707    5.479452050E-04
    2592       1     2708    5.479452050E-04
    2593       1     2709    5.479452050E-04
    2594       1     2710    5.479452050E-04
    2595       1     2711    5.479452050E-04
    2596       1     2712    5.479452050E-04
    2597       1     2713    5.479452050E-04
    2598       1     2714    5.479452050E-04
    2599       1     2715    5.479452050E-04
    2600       1     2716    5.479452050E-04
    2601       1     2717    5.479452050E-04
    2602       1     2718    5.479452050E-04
    2603       1     2719    5.479452050E-04
    2604       1     2720    5.479452050E-04
    2605       1     2721    5.479452050E-04
    2606       1     2722    5.479452050E-04
    2607       1     2723    5.479452050E-04
    2608       1     2724    5.479452050E-04
    2609       1     2725    5.479452050E-04
    2610       1     2726    5.479452050E-04
    2611       1     2727    5.479452050E-04
    2612       1     2728    5.479452050E-04
    2613       1     2729    5.479452050E-04
    2614       1     2730    5.479452050E-04
    2615       1     2731    5.479452050E-04
    2616       1     2732    5.479452050E-04
    2617       1     2733    5.479452050E-04
    2618       1     2734    5.479452050E-04
    2619       1     2735    5.479452050E-04
    2620       1     2736    5.479452050E-04
    2621       1     2737    5.479452050E-04
    2622       1     2738    5.479452050E-04
    2623       1     2739    5.479452050E-04
    2624       1     2740    5.479452050E-04
    2625       1     2741    5.479452050E-04
    2626       1     2742    5.479452050E-04
    2627       1     2743    5.479452050E-04
    2628       1     2744    5.479452050E-04
    2629       1     2745    5.479452050E-04
    2630       1     2746    5.479452050E-04
    2631       1     2747    5.479452050E-04
    2632       1     2748    5.479452050E-04
    2633       1     2749    5.479452050E-04
    2634       1     2750    5.479452050E-04
    2635       1     2751    5.479452050E-04
    2636       1     2752    5.479452050E-04
    2637       1     2753    5.479452050E-04
    2638       1     2754    5.479452050E-04
    2639       1     2755    5.479452050E-04
    2640       1     2756    5.479452050E-04
    2641       1     2757    5.479452050E-04
    2642       1     2758    5.479452050E-04
    2643       1     2759    5.479452050E-04
    2644       1     2760    5.479452050E-04
    2645       1     2761    5.479452050E-04
    2646       1     2762    5.479452050E-04
    2647       1     2763    5.479452050E-04
    2648       1     2764    5.479452050E-04
    2649       1     2765    5.479452050E-04
    2650       1     2766    5.479452050E-04
    2651       1     2767    5.479452050E-04
    2652       1     2768    5.479452050E-04
    2653       1     2769    5.479452050E-04
    2654       1     2770    5.479452050E-04
    2655       1     2771    5.479452050E-04
    2656       1     2772    5.479452050E-04
    2657       1     2773    5.479452050E-04
    2658       1     2774    5.479452050E-04
    2659       1     2775    5.479452050E-04
    2660       1     2776    5.479452050E-04
    2661       1     2777    5.479452050E-04
    2662       1     2778    5.479452050E-04
    2663       1     2779    5.479452050E-04
    2664       1     2780    5.479452050E-04
    2665       1     2781    5.479452050E-04
    2666       1     2782    5.479452050E-04
    2667       1     2783    5.479452050E-04
    2668       1     2784    5.479452050E-04
    2669       1     2785    5.479452050E-04
    2670       1     2786    5.479452050E-04
    2671       1     2787    5.479452050E-04
    2672       1     2788    5.479452050E-04
    2673       1     2789    5.479452050E-04
    2674       1     2790    5.479452050E-04
    2675       1     2791    5.479452050E-04
    2676       1     2792    5.479452050E-04
    2677       1     2793    5.479452050E-04
    2678       1     2794    5.479452050E-04
    2679       1     2795    5.479452050E-04
    2680       1     2796    5.479452050E-04
    2681       1     2797    5.479452050E-04
    2682       1     2798    5.479452050E-04
    2683       1     2799    5.479452050E-04
    2684       1     2800    5.479452050E-04
    2685       1     2801    5.479452050E-04
    2686       1     2802    5.479452050E-04
    2687       1     2803    5.479452050E-04
    2688       1     2804    5.479452050E-04
    2689       1     2805    5.479452050E-04
    2690       1     2806    5.479452050E-04
    2691       1     2807    5.479452050E-04
    2692       1     2808    5.479452050E-04
    2693       1     2809    5.479452050E-04
    2694       1     2810    5.479452050E-04
    2695       1     2811    5.479452050E-04
    2696       1     2812    5.479452050E-04
    2697       1     2813    5.479452050E-04
    2698       1     2814    5.479452050E-04
    2699       1     2815    5.479452050E-04
    2700       1     2816    5.479452050E-04
    2701       1     2817    5.479452050E-04
    2702       1     2818    5.479452050E-04
    2703       1     2819    5.479452050E-04
    2704       1     2820    5.479452050E-04
    2705       1     2821    5.479452050E-04
    2706       1     2824    5.479452050E-04
    2707       1     2825    5.479452050E-04
    2708       1     2826    5.479452050E-04
    2709       1     2827    5.479452050E-04
    2710       1     2828    5.479452050E-04
    2711       1     2829    5.479452050E-04
    2712       1     2830    5.479452050E-04
    2713       1     2831    5.479452050E-04
    2714       1     2832    5.479452050E-04
    2715       1     2833    5.479452050E-04
    2716       1     2834    5.479452050E-04
    2717       1     2835    5.479452050E-04
    2718       1     2836    5.479452050E-04
    2719       1     2837    5.479452050E-04
    2720       1     2838    5.479452050E-04
    2721       1     2839    5.479452050E-04
    2722       1     2840    5.479452050E-04
    2723       1     2841    5.479452050E-04
    2724       1     2842    5.479452050E-04
    2725       1     2843    5.479452050E-04
    2726       1     2844    5.479452050E-04
    2727       1     2845    5.479452050E-04
    2728       1     2846    5.479452050E-04
    2729       1     2847    5.479452050E-04
    2730       1     2848    5.479452050E-04
    2731       1     2849    5.479452050E-04
    2732       1     2850    5.479452050E-04
    2733       1     2851    5.479452050E-04
    2734       1     2852    5.479452050E-04
    2735       1     2853    5.479452050E-04
    2736       1     2854    5.479452050E-04
    2737       1     2855    5.479452050E-04
    2738       1     2856    5.479452050E-04
    2739       1     2857    5.479452050E-04
    2740       1     2858    5.479452050E-04
    2741       1     2859    5.479452050E-04
    2742       1     2860    5.479452050E-04
    2743       1     2861    5.479452050E-04
    2744       1     2862    5.479452050E-04
    2745       1     2863    5.479452050E-04
    2746       1     2864    5.479452050E-04
    2747       1     2865    5.479452050E-04
    2748       1     2866    5.479452050E-04
    2749       1     2867    5.479452050E-04
    2750       1     2868    5.479452050E-04
    2751       1     2869    5.479452050E-04
    2752       1     2870    5.479452050E-04
    2753       1     2871    5.479452050E-04
    2754       1     2872    5.479452050E-04
    2755       1     2873    5.479452050E-04
    2756       1     2874    5.479452050E-04
    2757       1     2875    5.479452050E-04
    2758       1     2876    5.479452050E-04
    2759       1     2877    5.479452050E-04
    2760       1     2878    5.479452050E-04
    2761       1     2879    5.479452050E-04
    2762       1     2880    5.479452050E-04
    2763       1     2881    5.479452050E-04
    2764       1     2882    5.479452050E-04
    2765       1     2883    5.479452050E-04
    2766       1     2884    5.479452050E-04
    2767       1     2885    5.479452050E-04
    2768       1     2886    5.479452050E-04
    2769       1     2887    5.479452050E-04
    2770       1     2888    5.479452050E-04
    2771       1     2889    5.479452050E-04
    2772       1     2890    5.479452050E-04
    2773       1     2891    5.479452050E-04
    2774       1     2892    5.479452050E-04
    2775       1     2893    5.479452050E-04
    2776       1     2894    5.479452050E-04
    2777       1     2895    5.479452050E-04
    2778       1     2896    5.479452050E-04
    2779       1     2897    5.479452050E-04
    2780       1     2898    5.479452050E-04
    2781       1     2899    5.479452050E-04
    2782       1     2900    5.479452050E-04
    2783       1     2901    5.479452050E-04
    2784       1     2902    5.479452050E-04
    2785       1     2903    5.479452050E-04
    2786       1     2904    5.479452050E-04
    2787       1     2905    5.479452050E-04
    2788       1     2906    5.479452050E-04
    2789       1     2907    5.479452050E-04
    2790       1     2908    5.479452050E-04
    2791       1     2909    5.479452050E-04
    2792       1     2910    5.479452050E-04
    2793       1     2911    5.479452050E-04
    2794       1     2912    5.479452050E-04
    2795       1     2913    5.479452050E-04
    2796       1     2914    5.479452050E-04
    2797       1     2915    5.479452050E-04
    2798       1     2916    5.479452050E-04
    2799       1     2917    5.479452050E-04
    2800       1     2918    5.479452050E-04
    2801       1     2919    5.479452050E-04
    2802       1     2920    5.479452050E-04
    2803       1     2921    5.479452050E-04
    2804       1     2922    5.479452050E-04
    2805       1     2923    5.479452050E-04
    2806       1     2924    5.479452050E-04
    2807       1     2925    5.479452050E-04
    2808       1     2926    5.479452050E-04
    2809       1     2927    5.479452050E-04
    2810       1     2928    5.479452050E-04
    2811       1     2929    5.479452050E-04
    2812       1     2930    5.479452050E-04
    2813       1     2931    5.479452050E-04
    2814       1     2932    5.479452050E-04
    2815       1     2933    5.479452050E-04
    2816       1     2934    5.479452050E-04
    2817       1     2935    5.479452050E-04
    2818       1     2936    5.479452050E-04
    2819       1     2937    5.479452050E-04
    2820       1     2938    5.479452050E-04
    2821       1     2939    5.479452050E-04
    2822       1     2940    5.479452050E-04
    2823       1     2941    5.479452050E-04
    2824       1     2942    5.479452050E-04
    2825       1     2943    5.479452050E-04
    2826       1     2944    5.479452050E-04
    2827       1     2945    5.479452050E-04
    2828       1     2946    5.479452050E-04
    2829       1     2947    5.479452050E-04
    2830       1     2948    5.479452050E-04
    2831       1     2949    5.479452050E-04
    2832       1     2950    5.479452050E-04
    2833       1     2951    5.479452050E-04
    2834       1     2952    5.479452050E-04
    2835       1     2953    5.479452050E-04
    2836       1     2954    5.479452050E-04
    2837       1     2955    5.479452050E-04
    2838       1     2956    5.479452050E-04
    2839       1     2957    5.479452050E-04
    2840       1     2958    5.479452050E-04
    2841       1     2959    5.479452050E-04
    2842       1     2960    5.479452050E-04
    2843       1     2961    5.479452050E-04
    2844       1     2962    5.479452050E-04
    2845       1     2963    5.479452050E-04
    2846       1     2964    5.479452050E-04
    2847       1     2965    5.479452050E-04
    2848       1     2966    5.479452050E-04
    2849       1     2967    5.479452050E-04
    2850       1     2968    5.479452050E-04
    2851       1     2969    5.479452050E-04
    2852       1     2970    5.479452050E-04
    2853       1     2971    5.479452050E-04
    2854       1     2972    5.479452050E-04
    2855       1     2973    5.479452050E-04
    2856       1     2974    5.479452050E-04
    2857       1     2975    5.479452050E-04
    2858       1     2976    5.479452050E-04
    2859       1     2977    5.479452050E-04
    2860       1     2978    5.479452050E-04
    2861       1     2981    5.479452050E-04
    2862       1     2982    5.479452050E-04
    2863       1     2983    5.479452050E-04
    2864       1     2984    5.479452050E-04
    2865       1     2985    5.479452050E-04
    2866       1     2986    5.479452050E-04
    2867       1     2987    5.479452050E-04
    2868       1     2988    5.479452050E-04
    2869       1     2989    5.479452050E-04
    2870       1     2990    5.479452050E-04
    2871       1     2991    5.479452050E-04
    2872       1     2992    5.479452050E-04
    2873       1     2993    5.479452050E-04
    2874       1     2994    5.479452050E-04
    2875       1     2995    5.479452050E-04
    2876       1     2996    5.479452050E-04
    2877       1     2997    5.479452050E-04
    2878       1     2998    5.479452050E-04
    2879       1     2999    5.479452050E-04
    2880       1     3000    5.479452050E-04
    2881       1     3001    5.479452050E-04
    2882       1     3002    5.479452050E-04
    2883       1     3003    5.479452050E-04
    2884       1     3004    5.479452050E-04
    2885       1     3005    5.479452050E-04
    2886       1     3006    5.479452050E-04
    2887       1     3007    5.479452050E-04
    2888       1     3008    5.479452050E-04
    2889       1     3009    5.479452050E-04
    2890       1     3010    5.479452050E-04
    2891       1     3011    5.479452050E-04
    2892       1     3012    5.479452050E-04
    2893       1     3013    5.479452050E-04
    2894       1     3014    5.479452050E-04
    2895       1     3015    5.479452050E-04
    2896       1     3016    5.479452050E-04
    2897       1     3017    5.479452050E-04
    2898       1     3018    5.479452050E-04
    2899       1     3019    5.479452050E-04
    2900       1     3020    5.479452050E-04
    2901       1     3021    5.479452050E-04
    2902       1     3022    5.479452050E-04
    2903       1     3023    5.479452050E-04
    2904       1     3024    5.479452050E-04
    2905       1     3025    5.479452050E-04
    2906       1     3026    5.479452050E-04
    2907       1     3027    5.479452050E-04
    2908       1     3028    5.479452050E-04
    2909       1     3029    5.479452050E-04
    2910       1     3030    5.479452050E-04
    2911       1     3031    5.479452050E-04
    2912       1     3032    5.479452050E-04
    2913       1     3033    5.479452050E-04
    2914       1     3034    5.479452050E-04
    2915       1     3035    5.479452050E-04
    2916       1     3036    5.479452050E-04
    2917       1     3037    5.479452050E-04
    2918       1     3038    5.479452050E-04
    2919       1     3039    5.479452050E-04
    2920       1     3040    5.479452050E-04
    2921       1     3041    5.479452050E-04
    2922       1     3042    5.479452050E-04
    2923       1     3043    5.479452050E-04
    2924       1     3044    5.479452050E-04
    2925       1     3045    5.479452050E-04
    2926       1     3046    5.479452050E-04
    2927       1     3047    5.479452050E-04
    2928       1     3048    5.479452050E-04
    2929       1     3049    5.479452050E-04
    2930       1     3050    5.479452050E-04
    2931       1     3051    5.479452050E-04
    2932       1     3052    5.479452050E-04
    2933       1     3053    5.479452050E-04
    2934       1     3054    5.479452050E-04
    2935       1     3055    5.479452050E-04
    2936       1     3056    5.479452050E-04
    2937       1     3057    5.479452050E-04
    2938       1     3058    5.479452050E-04
    2939       1     3059    5.479452050E-04
    2940       1     3060    5.479452050E-04
    2941       1     3061    5.479452050E-04
    2942       1     3062    5.479452050E-04
    2943       1     3063    5.479452050E-04
    2944       1     3064    5.479452050E-04
    2945       1     3065    5.479452050E-04
    2946       1     3066    5.479452050E-04
    2947       1     3067    5.479452050E-04
    2948       1     3068    5.479452050E-04
    2949       1     3069    5.479452050E-04
    2950       1     3070    5.479452050E-04
    2951       1     3071    5.479452050E-04
    2952       1     3072    5.479452050E-04
    2953       1     3073    5.479452050E-04
    2954       1     3074    5.479452050E-04
    2955       1     3075    5.479452050E-04
    2956       1     3076    5.479452050E-04
    2957       1     3077    5.479452050E-04
    2958       1     3078    5.479452050E-04
    2959       1     3079    5.479452050E-04
    2960       1     3080    5.479452050E-04
    2961       1     3081    5.479452050E-04
    2962       1     3082    5.479452050E-04
    2963       1     3083    5.479452050E-04
    2964       1     3084    5.479452050E-04
    2965       1     3085    5.479452050E-04
    2966       1     3086    5.479452050E-04
    2967       1     3087    5.479452050E-04
    2968       1     3088    5.479452050E-04
    2969       1     3089    5.479452050E-04
    2970       1     3090    5.479452050E-04
    2971       1     3091    5.479452050E-04
    2972       1     3092    5.479452050E-04
    2973       1     3093    5.479452050E-04
    2974       1     3094    5.479452050E-04
    2975       1     3095    5.479452050E-04
    2976       1     3098    5.479452050E-04
    2977       1     3099    5.479452050E-04
    2978       1     3100    5.479452050E-04
    2979       1     3101    5.479452050E-04
    2980       1     3102    5.479452050E-04
    2981       1     3103    5.479452050E-04
    2982       1     3104    5.479452050E-04
    2983       1     3105    5.479452050E-04
    2984       1     3106    5.479452050E-04
    2985       1     3107    5.479452050E-04
    2986       1     3108    5.479452050E-04
    2987       1     3109    5.479452050E-04
    2988       1     3110    5.479452050E-04
    2989       1     3111    5.479452050E-04
    2990       1     3112    5.479452050E-04
    2991       1     3113    5.479452050E-04
    2992       1     3114    5.479452050E-04
    2993       1     3115    5.479452050E-04
    2994       1     3116    5.479452050E-04
    2995       1     3117    5.479452050E-04
    2996       1     3118    5.479452050E-04
    2997       1     3119    5.479452050E-04
    2998       1     3120    5.479452050E-04
    2999       1     3121    5.479452050E-04
    3000       1     3122    5.479452050E-04
    3001       1     3123    5.479452050E-04
    3002       1     3124    5.479452050E-04
    3003       1     3125    5.479452050E-04
    3004       1     3126    5.479452050E-04
    3005       1     3127    5.479452050E-04
    3006       1     3128    5.479452050E-04
    3007       1     3129    5.479452050E-04
    3008       1     3130    5.479452050E-04
    3009       1     3131    5.479452050E-04
    3010       1     3132    5.479452050E-04
    3011       1     3133    5.479452050E-04
    3012       1     3134    5.479452050E-04
    3013       1     3135    5.479452050E-04
    3014       1     3136    5.479452050E-04
    3015       1     3137    5.479452050E-04
    3016       1     3138    5.479452050E-04
    3017       1     3139    5.479452050E-04
    3018       1     3140    5.479452050E-04
    3019       1     3141    5.479452050E-04
    3020       1     3142    5.479452050E-04
    3021       1     3143    5.479452050E-04
    3022       1     3144    5.479452050E-04
    3023       1     3145    5.479452050E-04
    3024       1     3146    5.479452050E-04
    3025       1     3147    5.479452050E-04
    3026       1     3148    5.479452050E-04
    3027       1     3149    5.479452050E-04
    3028       1     3150    5.479452050E-04
    3029       1     3151    5.479452050E-04
    3030       1     3152    5.479452050E-04
    3031       1     3153    5.479452050E-04
    3032       1     3154    5.479452050E-04
    3033       1     3155    5.479452050E-04
    3034       1     3156    5.479452050E-04
    3035       1     3157    5.479452050E-04
    3036       1     3158    5.479452050E-04
    3037       1     3159    5.479452050E-04
    3038       1     3160    5.479452050E-04
    3039       1     3161    5.479452050E-04
    3040       1     3162    5.479452050E-04
    3041       1     3163    5.479452050E-04
    3042       1     3164    5.479452050E-04
    3043       1     3165    5.479452050E-04
    3044       1     3166    5.479452050E-04
    3045       1     3167    5.479452050E-04
    3046       1     3168    5.479452050E-04
    3047       1     3169    5.479452050E-04
    3048       1     3170    5.479452050E-04
    3049       1     3171    5.479452050E-04
    3050       1     3172    5.479452050E-04
    3051       1     3173    5.479452050E-04
    3052       1     3174    5.479452050E-04
    3053       1     3175    5.479452050E-04
    3054       1     3176    5.479452050E-04
    3055       1     3177    5.479452050E-04
    3056       1     3178    5.479452050E-04
    3057       1     3179    5.479452050E-04
    3058       1     3180    5.479452050E-04
    3059       1     3181    5.479452050E-04
    3060       1     3182    5.479452050E-04
    3061       1     3183    5.479452050E-04
    3062       1     3184    5.479452050E-04
    3063       1     3185    5.479452050E-04
    3064       1     3186    5.479452050E-04
    3065       1     3187    5.479452050E-04
    3066       1     3188    5.479452050E-04
    3067       1     3189    5.479452050E-04
    3068       1     3190    5.479452050E-04
    3069       1     3191    5.479452050E-04
    3070       1     3192    5.479452050E-04
    3071       1     3193    5.479452050E-04
    3072       1     3194    5.479452050E-04
    3073       1     3195    5.479452050E-04
    3074       1     3196    5.479452050E-04
    3075       1     3197    5.479452050E-04
    3076       1     3198    5.479452050E-04
    3077       1     3199    5.479452050E-04
    3078       1     3200    5.479452050E-04
    3079       1     3201    5.479452050E-04
    3080       1     3202    5.479452050E-04
    3081       1     3203    5.479452050E-04
    3082       1     3204    5.479452050E-04
    3083       1     3205    5.479452050E-04
    3084       1     3206    5.479452050E-04
    3085       1     3207    5.479452050E-04
    3086       1     3208    5.479452050E-04
    3087       1     3212    5.479452050E-04
    3088       1     3213    5.479452050E-04
    3089       1     3214    5.479452050E-04
    3090       1     3215    5.479452050E-04
    3091       1     3216    5.479452050E-04
    3092       1     3217    5.479452050E-04
    3093       1     3218    5.479452050E-04
    3094       1     3219    5.479452050E-04
    3095       1     3220    5.479452050E-04
    3096       1     3221    5.479452050E-04
    3097       1     3222    5.479452050E-04
    3098       1     3223    5.479452050E-04
    3099       1     3224    5.479452050E-04
    3100       1     3225    5.479452050E-04
    3101       1     3226    5.479452050E-04
    3102       1     3227    5.479452050E-04
    3103       1     3228    5.479452050E-04
    3104       1     3229    5.479452050E-04
    3105       1     3230    5.479452050E-04
    3106       1     3231    5.479452050E-04
    3107       1     3232    5.479452050E-04
    3108       1     3233    5.479452050E-04
    3109       1     3234    5.479452050E-04
    3110       1     3235    5.479452050E-04
    3111       1     3236    5.479452050E-04
    3112       1     3237    5.479452050E-04
    3113       1     3238    5.479452050E-04
    3114       1     3239    5.479452050E-04
    3115       1     3240    5.479452050E-04
    3116       1     3241    5.479452050E-04
    3117       1     3242    5.479452050E-04
    3118       1     3243    5.479452050E-04
    3119       1     3244    5.479452050E-04
    3120       1     3245    5.479452050E-04
    3121       1     3246    5.479452050E-04
    3122       1     3247    5.479452050E-04
    3123       1     3248    5.479452050E-04
    3124       1     3249    5.479452050E-04
    3125       1     3250    5.479452050E-04
    3126       1     3251    5.479452050E-04
    3127       1     3252    5.479452050E-04
    3128       1     3253    5.479452050E-04
    3129       1     3254    5.479452050E-04
    3130       1     3255    5.479452050E-04
    3131       1     3256    5.479452050E-04
    3132       1     3257    5.479452050E-04
    3133       1     3258    5.479452050E-04
    3134       1     3259    5.479452050E-04
    3135       1     3260    5.479452050E-04
    3136       1     3261    5.479452050E-04
    3137       1     3262    5.479452050E-04
    3138       1     3263    5.479452050E-04
    3139       1     3264    5.479452050E-04
    3140       1     3265    5.479452050E-04
    3141       1     3266    5.479452050E-04
    3142       1     3267    5.479452050E-04
    3143       1     3268    5.479452050E-04
    3144       1     3269    5.479452050E-04
    3145       1     3270    5.479452050E-04
    3146       1     3271    5.479452050E-04
    3147       1     3272    5.479452050E-04
    3148       1     3273    5.479452050E-04
    3149       1     3274    5.479452050E-04
    3150       1     3275    5.479452050E-04
    3151       1     3276    5.479452050E-04
    3152       1     3277    5.479452050E-04
    3153       1     3278    5.479452050E-04
    3154       1     3279    5.479452050E-04
    3155       1     3280    5.479452050E-04
    3156       1     3281    5.479452050E-04
    3157       1     3282    5.479452050E-04
    3158       1     3285    5.479452050E-04
    3159       1     3286    5.479452050E-04
    3160       1     3287    5.479452050E-04
    3161       1     3288    5.479452050E-04
    3162       1     3289    5.479452050E-04
    3163       1     3290    5.479452050E-04
    3164       1     3291    5.479452050E-04
    3165       1     3292    5.479452050E-04
    3166       1     3293    5.479452050E-04
    3167       1     3294    5.479452050E-04
    3168       1     3295    5.479452050E-04
    3169       1     3296    5.479452050E-04
    3170       1     3297    5.479452050E-04
    3171       1     3298    5.479452050E-04
    3172       1     3299    5.479452050E-04
    3173       1     3300    5.479452050E-04
    3174       1     3301    5.479452050E-04
    3175       1     3302    5.479452050E-04
    3176       1     3303    5.479452050E-04
    3177       1     3304    5.479452050E-04
    3178       1     3305    5.479452050E-04
    3179       1     3306    5.479452050E-04
    3180       1     3307    5.479452050E-04
    3181       1     3308    5.479452050E-04
    3182       1     3309    5.479452050E-04
    3183       1     3310    5.479452050E-04
    3184       1     3311    5.479452050E-04
    3185       1     3312    5.479452050E-04
    3186       1     3313    5.479452050E-04
    3187       1     3314    5.479452050E-04
    3188       1     3315    5.479452050E-04
    3189       1     3316    5.479452050E-04
    3190       1     3317    5.479452050E-04
    3191       1     3318    5.479452050E-04
    3192       1     3319    5.479452050E-04
    3193       1     3320    5.479452050E-04
    3194       1     3321    5.479452050E-04
    3195       1     3322    5.479452050E-04
    3196       1     3323    5.479452050E-04
    3197       1     3324    5.479452050E-04
    3198       1     3325    5.479452050E-04
    3199       1     3326    5.479452050E-04
    3200       1     3327    5.479452050E-04
    3201       1     3328    5.479452050E-04
    3202       1     3329    5.479452050E-04
    3203       1     3330    5.479452050E-04
    3204       1     3331    5.479452050E-04
    3205       1     3332    5.479452050E-04
    3206       1     3333    5.479452050E-04
    3207       1     3334    5.479452050E-04
    3208       1     3335    5.479452050E-04
    3209       1     3336    5.479452050E-04
    3210       1     3337    5.479452050E-04
    3211       1     3338    5.479452050E-04
    3212       1     3339    5.479452050E-04
    3213       1     3340    5.479452050E-04
    3214       1     3341    5.479452050E-04
    3215       1     3342    5.479452050E-04
    3216       1     3343    5.479452050E-04
    3217       1     3344    5.479452050E-04
    3218       1     3345    5.479452050E-04
    3219       1     3346    5.479452050E-04
    3220       1     3347    5.479452050E-04
    3221       1     3348    5.479452050E-04
    3222       1     3349    5.479452050E-04
    3223       1     3350    5.479452050E-04
    3224       1     3351    5.479452050E-04
    3225       1     3354    5.479452050E-04
    3226       1     3355    5.479452050E-04
    3227       1     3356    5.479452050E-04
    3228       1     3357    5.479452050E-04
    3229       1     3358    5.479452050E-04
    3230       1     3359    5.479452050E-04
    3231       1     3360    5.479452050E-04
    3232       1     3361    5.479452050E-04
    3233       1     3362    5.479452050E-04
    3234       1     3363    5.479452050E-04
    3235       1     3364    5.479452050E-04
    3236       1     3365    5.479452050E-04
    3237       1     3366    5.479452050E-04
    3238       1     3367    5.479452050E-04
    3239       1     3368    5.479452050E-04
    3240       1     3369    5.479452050E-04
    3241       1     3370    5.479452050E-04
    3242       1     3371    5.479452050E-04
    3243       1     3372    5.479452050E-04
    3244       1     3373    5.479452050E-04
    3245       1     3374    5.479452050E-04
    3246       1     3375    5.479452050E-04
    3247       1     3376    5.479452050E-04
    3248       1     3377    5.479452050E-04
    3249       1     3378    5.479452050E-04
    3250       1     3379    5.479452050E-04
    3251       1     3380    5.479452050E-04
    3252       1     3381    5.479452050E-04
    3253       1     3382    5.479452050E-04
    3254       1     3383    5.479452050E-04
    3255       1     3384    5.479452050E-04
    3256       1     3385    5.479452050E-04
    3257       1     3386    5.479452050E-04
    3258       1     3387    5.479452050E-04
    3259       1     3388    5.479452050E-04
    3260       1     3389    5.479452050E-04
    3261       1     3390    5.479452050E-04
    3262       1     3391    5.479452050E-04
    3263       1     3392    5.479452050E-04
    3264       1     3393    5.479452050E-04
    3265       1     3394    5.479452050E-04
    3266       1     3395    5.479452050E-04
    3267       1     3396    5.479452050E-04
    3268       1     3397    5.479452050E-04
    3269       1     3398    5.479452050E-04
    3270       1     3399    5.479452050E-04
    3271       1     3400    5.479452050E-04
    3272       1     3401    5.479452050E-04
    3273       1     3402    5.479452050E-04
    3274       1     3403    5.479452050E-04
    3275       1     3404    5.479452050E-04
    3276       1     3405    5.479452050E-04
    3277       1     3406    5.479452050E-04
    3278       1     3407    5.479452050E-04
    3279       1     3408    5.479452050E-04
    3280       1     3409    5.479452050E-04
    3281       1     3410    5.479452050E-04
    3282       1     3411    5.479452050E-04
    3283       1     3412    5.479452050E-04
    3284       1     3413    5.479452050E-04
    3285       1     3414    5.479452050E-04
    3286       1     3415    5.479452050E-04
    3287       1     3416    5.479452050E-04
    3288       1     3417    5.479452050E-04
    3289       1     3418    5.479452050E-04
    3290       1     3419    5.479452050E-04
    3291       1     3420    5.479452050E-04
    3292       1     3421    5.479452050E-04
    3293       1     3422    5.479452050E-04
    3294       1     3423    5.479452050E-04
    3295       1     3424    5.479452050E-04
    3296       1     3425    5.479452050E-04
    3297       1     3426    5.479452050E-04
    3298       1     3427    5.479452050E-04
    3299       1     3428    5.479452050E-04
    3300       1     3429    5.479452050E-04
    3301       1     3430    5.479452050E-04
    3302       1     3431    5.479452050E-04
    3303       1     3434    5.479452050E-04
    3304       1     3435    5.479452050E-04
    3305       1     3436    5.479452050E-04
    3306       1     3437    5.479452050E-04
    3307       1     3438    5.479452050E-04
    3308       1     3439    5.479452050E-04
    3309       1     3440    5.479452050E-04
    3310       1     3441    5.479452050E-04
    3311       1     3442    5.479452050E-04
    3312       1     3443    5.479452050E-04
    3313       1     3444    5.479452050E-04
    3314       1     3445    5.479452050E-04
    3315       1     3446    5.479452050E-04
    3316       1     3447    5.479452050E-04
    3317       1     3448    5.479452050E-04
    3318       1     3449    5.479452050E-04
    3319       1     3450    5.479452050E-04
    3320       1     3451    5.479452050E-04
    3321       1     3452    5.479452050E-04
    3322       1     3453    5.479452050E-04
    3323       1     3454    5.479452050E-04
    3324       1     3455    5.479452050E-04
    3325       1     3456    5.479452050E-04
    3326       1     3457    5.479452050E-04
    3327       1     3458    5.479452050E-04
    3328       1     3459    5.479452050E-04
    3329       1     3460    5.479452050E-04
    3330       1     3461    5.479452050E-04
    3331       1     3462    5.479452050E-04
    3332       1     3463    5.479452050E-04
    3333       1     3464    5.479452050E-04
    3334       1     3465    5.479452050E-04
    3335       1     3466    5.479452050E-04
    3336       1     3467    5.479452050E-04
    3337       1     3468    5.479452050E-04
    3338       1     3469    5.479452050E-04
    3339       1     3470    5.479452050E-04
    3340       1     3471    5.479452050E-04
    3341       1     3472    5.479452050E-04
    3342       1     3473    5.479452050E-04
    3343       1     3474    5.479452050E-04
    3344       1     3475    5.479452050E-04
    3345       1     3476    5.479452050E-04
    3346       1     3477    5.479452050E-04
    3347       1     3478    5.479452050E-04
    3348       1     3479    5.479452050E-04
    3349       1     3480    5.479452050E-04
    3350       1     3481    5.479452050E-04
    3351       1     3482    5.479452050E-04
    3352       1     3483    5.479452050E-04
    3353       1     3484    5.479452050E-04
    3354       1     3485    5.479452050E-04
    3355       1     3486    5.479452050E-04
    3356       1     3487    5.479452050E-04
    3357       1     3488    5.479452050E-04
    3358       1     3489    5.479452050E-04
    3359       1     3490    5.479452050E-04
    3360       1     3491    5.479452050E-04
    3361       1     3492    5.479452050E-04
    3362       1     3493    5.479452050E-04
    3363       1     3494    5.479452050E-04
    3364       1     3495    5.479452050E-04
    3365       1     3496    5.479452050E-04
    3366       1     3497    5.479452050E-04
    3367       1     3498    5.479452050E-04
    3368       1     3499    5.479452050E-04
    3369       1     3500    5.479452050E-04
    3370       1     3501    5.479452050E-04
    3371       1     3502    5.479452050E-04
    3372       1     3505    5.479452050E-04
    3373       1     3506    5.479452050E-04
    3374       1     3507    5.479452050E-04
    3375       1     3508    5.479452050E-04
    3376       1     3509    5.479452050E-04
    3377       1     3510    5.479452050E-04
    3378       1     3511    5.479452050E-04
    3379       1     3512    5.479452050E-04
    3380       1     3513    5.479452050E-04
    3381       1     3514    5.479452050E-04
    3382       1     3515    5.479452050E-04
    3383       1     3516    5.479452050E-04
    3384       1     3517    5.479452050E-04
    3385       1     3518    5.479452050E-04
    3386       1     3519    5.479452050E-04
    3387       1     3520    5.479452050E-04
    3388       1     3521    5.479452050E-04
    3389       1     3522    5.479452050E-04
    3390       1     3523    5.479452050E-04
    3391       1     3524    5.479452050E-04
    3392       1     3525    5.479452050E-04
    3393       1     3526    5.479452050E-04
    3394       1     3527    5.479452050E-04
    3395       1     3528    5.479452050E-04
    3396       1     3529    5.479452050E-04
    3397       1     3530    5.479452050E-04
    3398       1     3531    5.479452050E-04
    3399       1     3532    5.479452050E-04
    3400       1     3533    5.479452050E-04
    3401       1     3534    5.479452050E-04
    3402       1     3535    5.479452050E-04
    3403       1     3536    5.479452050E-04
    3404       1     3537    5.479452050E-04
    3405       1     3538    5.479452050E-04
    3406       1     3539    5.479452050E-04
    3407       1     3540    5.479452050E-04
    3408       1     3541    5.479452050E-04
    3409       1     3542    5.479452050E-04
    3410       1     3543    5.479452050E-04
    3411       1     3544    5.479452050E-04
    3412       1     3545    5.479452050E-04
    3413       1     3546    5.479452050E-04
    3414       1     3547    5.479452050E-04
    3415       1     3548    5.479452050E-04
    3416       1     3549    5.479452050E-04
    3417       1     3550    5.479452050E-04
    3418       1     3551    5.479452050E-04
    3419       1     3552    5.479452050E-04
    3420       1     3553    5.479452050E-04
    3421       1     3554    5.479452050E-04
    3422       1     3555    5.479452050E-04
    3423       1     3556    5.479452050E-04
    3424       1     3557    5.479452050E-04
    3425       1     3558    5.479452050E-04
    3426       1     3559    5.479452050E-04
    3427       1     3560    5.479452050E-04
    3428       1     3561    5.479452050E-04
    3429       1     3562    5.479452050E-04
    3430       1     3563    5.479452050E-04
    3431       1     3564    5.479452050E-04
    3432       1     3565    5.479452050E-04
    3433       1     3566    5.479452050E-04
    3434       1     3567    5.479452050E-04
    3435       1     3570    5.479452050E-04
    3436       1     3571    5.479452050E-04
    3437       1     3572    5.479452050E-04
    3438       1     3573    5.479452050E-04
    3439       1     3574    5.479452050E-04
    3440       1     3575    5.479452050E-04
    3441       1     3576    5.479452050E-04
    3442       1     3577    5.479452050E-04
    3443       1     3578    5.479452050E-04
    3444       1     3579    5.479452050E-04
    3445       1     3580    5.479452050E-04
    3446       1     3581    5.479452050E-04
    3447       1     3582    5.479452050E-04
    3448       1     3583    5.479452050E-04
    3449       1     3584    5.479452050E-04
    3450       1     3585    5.479452050E-04
    3451       1     3586    5.479452050E-04
    3452       1     3587    5.479452050E-04
    3453       1     3588    5.479452050E-04
    3454       1     3589    5.479452050E-04
    3455       1     3590    5.479452050E-04
    3456       1     3591    5.479452050E-04
    3457       1     3592    5.479452050E-04
    3458       1     3593    5.479452050E-04
    3459       1     3594    5.479452050E-04
    3460       1     3595    5.479452050E-04
    3461       1     3596    5.479452050E-04
    3462       1     3597    5.479452050E-04
    3463       1     3598    5.479452050E-04
    3464       1     3599    5.479452050E-04
    3465       1     3600    5.479452050E-04
    3466       1     3601    5.479452050E-04
    3467       1     3602    5.479452050E-04
    3468       1     3603    5.479452050E-04
    3469       1     3604    5.479452050E-04
    3470       1     3605    5.479452050E-04
    3471       1     3606    5.479452050E-04
    3472       1     3607    5.479452050E-04
    3473       1     3608    5.479452050E-04
    3474       1     3609    5.479452050E-04
    3475       1     3610    5.479452050E-04
    3476       1     3611    5.479452050E-04
    3477       1     3612    5.479452050E-04
    3478       1     3613    5.479452050E-04
    3479       1     3614    5.479452050E-04
    3480       1     3615    5.479452050E-04
    3481       1     3616    5.479452050E-04
    3482       1     3617    5.479452050E-04
    3483       1     3620    5.479452050E-04
    3484       1     3621    5.479452050E-04
    3485       1     3622    5.479452050E-04
    3486       1     3623    5.479452050E-04
    3487       1     3624    5.479452050E-04
    3488       1     3625    5.479452050E-04
    3489       1     3626    5.479452050E-04
    3490       1     3627    5.479452050E-04
    3491       1     3628    5.479452050E-04
    3492       1     3629    5.479452050E-04
    3493       1     3630    5.479452050E-04
    3494       1     3631    5.479452050E-04
    3495       1     3632    5.479452050E-04
    3496       1     3633    5.479452050E-04
    3497       1     3634    5.479452050E-04
    3498       1     3635    5.479452050E-04
    3499       1     3636    5.479452050E-04
    3500       1     3637    5.479452050E-04
    3501       1     3638    5.479452050E-04
    3502       1     3639    5.479452050E-04
    3503       1     3640    5.479452050E-04
    3504       1     3641    5.479452050E-04
    3505       1     3642    5.479452050E-04
    3506       1     3643    5.479452050E-04
    3507       1     3644    5.479452050E-04
    3508       1     3645    5.479452050E-04
    3509       1     3646    5.479452050E-04
    3510       1     3647    5.479452050E-04
    3511       1     3648    5.479452050E-04
    3512       1     3649    5.479452050E-04
    3513       1     3650    5.479452050E-04
    3514       1     3651    5.479452050E-04
    3515       1     3652    5.479452050E-04
    3516       1     3653    5.479452050E-04
    3517       1     3654    5.479452050E-04
    3518       1     3655    5.479452050E-04
    3519       1     3656    5.479452050E-04
    3520       1     3657    5.479452050E-04
    3521       1     3658    5.479452050E-04
    3522       1     3659    5.479452050E-04
    3523       1     3660    5.479452050E-04
    3524       1     3661    5.479452050E-04
    3525       1     3662    5.479452050E-04
    3526       1     3667    5.479452050E-04
    3527       1     3668    5.479452050E-04
    3528       1     3669    5.479452050E-04
    3529       1     3670    5.479452050E-04
    3530       1     3671    5.479452050E-04
    3531       1     3672    5.479452050E-04
    3532       1     3673    5.479452050E-04
    3533       1     3674    5.479452050E-04
    3534       1     3675    5.479452050E-04
    3535       1     3676    5.479452050E-04
    3536       1     3677    5.479452050E-04
    3537       1     3678    5.479452050E-04
    3538       1     3679    5.479452050E-04
    3539       1     3680    5.479452050E-04
    3540       1     3681    5.479452050E-04
    3541       1     3682    5.479452050E-04
    3542       1     3683    5.479452050E-04
    3543       1     3684    5.479452050E-04
    3544       1     3685    5.479452050E-04
    3545       1     3686    5.479452050E-04
    3546       1     3687    5.479452050E-04
    3547       1     3688    5.479452050E-04
    3548       1     3689    5.479452050E-04
    3549       1     3690    5.479452050E-04
    3550       1     3691    5.479452050E-04
    3551       1     3692    5.479452050E-04
    3552       1     3693    5.479452050E-04
    3553       1     3694    5.479452050E-04
    3554       1     3695    5.479452050E-04
    3555       1     3696    5.479452050E-04
    3556       1     3697    5.479452050E-04
    3557       1     3698    5.479452050E-04
    3558       1     3699    5.479452050E-04
    3559       1     3700    5.479452050E-04
    3560       1     3701    5.479452050E-04
    3561       1     3702    5.479452050E-04
    3562       1     3710    5.479452050E-04
    3563       1     3711    5.479452050E-04
    3564       1     3712    5.479452050E-04
    3565       1     3713    5.479452050E-04
    3566       1     3714    5.479452050E-04
    3567       1     3715    5.479452050E-04
    3568       1     3716    5.479452050E-04
    3569       1     3717    5.479452050E-04
    3570       1     3718    5.479452050E-04
    3571       1     3719    5.479452050E-04
    3572       1     3720    5.479452050E-04
    3573       1     3721    5.479452050E-04
    3574       1     3722    5.479452050E-04
    3575       1     3723    5.479452050E-04
    3576       1     3724    5.479452050E-04
    3577       1     3725    5.479452050E-04
    3578       1     3746    5.479452050E-04
    3579       1     3747    5.479452050E-04
    3580       1     3748    5.479452050E-04
    3581       1     3749    5.479452050E-04
    3582       1     3750    5.479452050E-04
    3583       1     3751    5.479452050E-04
    3584       1     3752    5.479452050E-04
    3585       1     3753    5.479452050E-04
    3586       1     3754    5.479452050E-04
    3587       1     3755    5.479452050E-04
    3588       1     3756    5.479452050E-04
    3589       1     3757    5.479452050E-04
    3590       1     3758    5.479452050E-04
    3591       1     3759    5.479452050E-04
    3592       1     3761    5.479452050E-04
    3593       1     3762    5.479452050E-04
    3594       1     3763    5.479452050E-04
    3595       1     3764    5.479452050E-04
    3596       1     3765    5.479452050E-04
    3597       1     3766    5.479452050E-04
    3598       1     3767    5.479452050E-04
    3599       1     3768    5.479452050E-04
    3600       1     3769    5.479452050E-04
    3601       1     3770    5.479452050E-04
    3602       1     3771    5.479452050E-04
    3603       1     3772    5.479452050E-04
 -------------------------------------------



 SFR PACKAGE (SFR) DATA FOR PERIOD      1
 ---------------------------------------------------------------
   NUMBER   KEYWORD                  VALUE 1         VALUE 2    
 ---------------------------------------------------------------
     1      STATUS                   ACTIVE                     
     1      UPSTREAM_FRACTION      1.00000000                   
     1      MANNING                   0.03                      
     2      STATUS                   ACTIVE                     
     2      UPSTREAM_FRACTION      1.00000000                   
     2      MANNING                   0.03                      
     3      STATUS                   ACTIVE                     
     3      UPSTREAM_FRACTION      1.00000000                   
     3      MANNING                   0.03                      
     4      STATUS                   ACTIVE                     
     4      UPSTREAM_FRACTION      1.00000000                   
     4      MANNING                   0.03                      
     5      STATUS                   ACTIVE                     
     5      UPSTREAM_FRACTION      1.00000000                   
     5      MANNING                   0.03                      
     6      STATUS                   ACTIVE                     
     6      UPSTREAM_FRACTION      1.00000000                   
     6      MANNING                   0.03                      
     7      STATUS                   ACTIVE                     
     7      UPSTREAM_FRACTION      1.00000000                   
     7      MANNING                   0.03                      
     8      STATUS                   ACTIVE                     
     8      UPSTREAM_FRACTION      1.00000000                   
     8      MANNING                   0.03                      
     9      STATUS                   ACTIVE                     
     9      UPSTREAM_FRACTION      1.00000000                   
     9      MANNING                   0.03                      
     10     STATUS                   ACTIVE                     
     10     UPSTREAM_FRACTION      1.00000000                   
     10     MANNING                   0.03                      
     11     STATUS                   ACTIVE                     
     11     UPSTREAM_FRACTION      1.00000000                   
     11     MANNING                   0.03                      
     12     STATUS                   ACTIVE                     
     12     UPSTREAM_FRACTION      1.00000000                   
     12     MANNING                   0.03                      
     13     STATUS                   ACTIVE                     
     13     UPSTREAM_FRACTION      1.00000000                   
     13     MANNING                   0.03                      
     14     STATUS                   ACTIVE                     
     14     UPSTREAM_FRACTION      1.00000000                   
     14     MANNING                   0.03                      
     15     STATUS                   ACTIVE                     
     15     UPSTREAM_FRACTION      1.00000000                   
     15     MANNING                   0.03                      
     16     STATUS                   ACTIVE                     
     16     UPSTREAM_FRACTION      1.00000000                   
     16     MANNING                   0.03                      
     17     STATUS                   ACTIVE                     
     17     UPSTREAM_FRACTION      1.00000000                   
     17     MANNING                   0.03                      
     18     STATUS                   ACTIVE                     
     18     UPSTREAM_FRACTION      1.00000000                   
     18     MANNING                   0.03                      
     19     STATUS                   ACTIVE                     
     19     UPSTREAM_FRACTION      1.00000000                   
     19     MANNING                   0.03                      
     20     STATUS                   ACTIVE                     
     20     UPSTREAM_FRACTION      1.00000000                   
     20     MANNING                   0.03                      
     21     STATUS                   ACTIVE                     
     21     UPSTREAM_FRACTION      1.00000000                   
     21     MANNING                   0.03                      
     22     STATUS                   ACTIVE                     
     22     UPSTREAM_FRACTION      1.00000000                   
     22     MANNING                   0.03                      
     23     STATUS                   ACTIVE                     
     23     UPSTREAM_FRACTION      1.00000000                   
     23     MANNING                   0.03                      
     24     STATUS                   ACTIVE                     
     24     UPSTREAM_FRACTION      1.00000000                   
     24     MANNING                   0.03                      
     25     STATUS                   ACTIVE                     
     25     UPSTREAM_FRACTION      1.00000000                   
     25     MANNING                   0.03                      
     26     STATUS                   ACTIVE                     
     26     UPSTREAM_FRACTION      1.00000000                   
     26     MANNING                   0.03                      
     27     STATUS                   ACTIVE                     
     27     UPSTREAM_FRACTION      1.00000000                   
     27     MANNING                   0.03                      
     28     STATUS                   ACTIVE                     
     28     UPSTREAM_FRACTION      1.00000000                   
     28     MANNING                   0.03                      
     29     STATUS                   ACTIVE                     
     29     UPSTREAM_FRACTION      1.00000000                   
     29     MANNING                   0.03                      
     30     STATUS                   ACTIVE                     
     30     UPSTREAM_FRACTION      1.00000000                   
     30     MANNING                   0.03                      
     31     STATUS                   ACTIVE                     
     31     UPSTREAM_FRACTION      1.00000000                   
     31     MANNING                   0.03                      
     32     STATUS                   ACTIVE                     
     32     UPSTREAM_FRACTION      1.00000000                   
     32     MANNING                   0.03                      
     33     STATUS                   ACTIVE                     
     33     UPSTREAM_FRACTION      1.00000000                   
     33     MANNING                   0.03                      
     34     STATUS                   ACTIVE                     
     34     UPSTREAM_FRACTION      1.00000000                   
     34     MANNING                   0.03                      
     35     STATUS                   ACTIVE                     
     35     UPSTREAM_FRACTION      1.00000000                   
     35     MANNING                   0.03                      
     36     STATUS                   ACTIVE                     
     36     UPSTREAM_FRACTION      1.00000000                   
     36     MANNING                   0.03                      
     37     STATUS                   ACTIVE                     
     37     UPSTREAM_FRACTION      1.00000000                   
     37     MANNING                   0.03                      
     38     STATUS                   ACTIVE                     
     38     UPSTREAM_FRACTION      1.00000000                   
     38     MANNING                   0.03                      
     39     STATUS                   ACTIVE                     
     39     UPSTREAM_FRACTION      1.00000000                   
     39     MANNING                   0.03                      
     40     STATUS                   ACTIVE                     
     40     UPSTREAM_FRACTION      1.00000000                   
     40     MANNING                   0.03                      
     41     STATUS                   ACTIVE                     
     41     UPSTREAM_FRACTION      1.00000000                   
     41     MANNING                   0.03                      
     42     STATUS                   ACTIVE                     
     42     UPSTREAM_FRACTION      1.00000000                   
     42     MANNING                   0.03                      
     43     STATUS                   ACTIVE                     
     43     UPSTREAM_FRACTION      1.00000000                   
     43     MANNING                   0.03                      
     44     STATUS                   ACTIVE                     
     44     UPSTREAM_FRACTION      1.00000000                   
     44     MANNING                   0.03                      
     45     STATUS                   ACTIVE                     
     45     UPSTREAM_FRACTION      1.00000000                   
     45     MANNING                   0.03                      
     46     STATUS                   ACTIVE                     
     46     UPSTREAM_FRACTION      1.00000000                   
     46     MANNING                   0.03                      
     47     STATUS                   ACTIVE                     
     47     UPSTREAM_FRACTION      1.00000000                   
     47     MANNING                   0.03                      
     48     STATUS                   ACTIVE                     
     48     UPSTREAM_FRACTION      1.00000000                   
     48     MANNING                   0.03                      
     49     STATUS                   ACTIVE                     
     49     UPSTREAM_FRACTION      1.00000000                   
     49     MANNING                   0.03                      
     50     STATUS                   ACTIVE                     
     50     UPSTREAM_FRACTION      1.00000000                   
     50     MANNING                   0.03                      
     51     STATUS                   ACTIVE                     
     51     UPSTREAM_FRACTION      1.00000000                   
     51     MANNING                   0.03                      
     52     STATUS                   ACTIVE                     
     52     UPSTREAM_FRACTION      1.00000000                   
     52     MANNING                   0.03                      
     53     STATUS                   ACTIVE                     
     53     UPSTREAM_FRACTION      1.00000000                   
     53     MANNING                   0.03                      
     54     STATUS                   ACTIVE                     
     54     UPSTREAM_FRACTION      1.00000000                   
     54     MANNING                   0.03                      
     55     STATUS                   ACTIVE                     
     55     UPSTREAM_FRACTION      1.00000000                   
     55     MANNING                   0.03                      
     56     STATUS                   ACTIVE                     
     56     UPSTREAM_FRACTION      1.00000000                   
     56     MANNING                   0.03                      
     57     STATUS                   ACTIVE                     
     57     UPSTREAM_FRACTION      1.00000000                   
     57     MANNING                   0.03                      
     58     STATUS                   ACTIVE                     
     58     UPSTREAM_FRACTION      1.00000000                   
     58     MANNING                   0.03                      
     59     STATUS                   ACTIVE                     
     59     UPSTREAM_FRACTION      1.00000000                   
     59     MANNING                   0.03                      
     60     STATUS                   ACTIVE                     
     60     UPSTREAM_FRACTION      1.00000000                   
     60     MANNING                   0.03                      
     61     STATUS                   ACTIVE                     
     61     UPSTREAM_FRACTION      1.00000000                   
     61     MANNING                   0.03                      
     62     STATUS                   ACTIVE                     
     62     UPSTREAM_FRACTION      1.00000000                   
     62     MANNING                   0.03                      
     63     STATUS                   ACTIVE                     
     63     UPSTREAM_FRACTION      1.00000000                   
     63     MANNING                   0.03                      
     64     STATUS                   ACTIVE                     
     64     UPSTREAM_FRACTION      1.00000000                   
     64     MANNING                   0.03                      
     65     STATUS                   ACTIVE                     
     65     UPSTREAM_FRACTION      1.00000000                   
     65     MANNING                   0.03                      
     66     STATUS                   ACTIVE                     
     66     UPSTREAM_FRACTION      1.00000000                   
     66     MANNING                   0.03                      
     67     STATUS                   ACTIVE                     
     67     UPSTREAM_FRACTION      1.00000000                   
     67     MANNING                   0.03                      
     68     STATUS                   ACTIVE                     
     68     UPSTREAM_FRACTION      1.00000000                   
     68     MANNING                   0.03                      
     69     STATUS                   ACTIVE                     
     69     UPSTREAM_FRACTION      1.00000000                   
     69     MANNING                   0.03                      
     70     STATUS                   ACTIVE                     
     70     UPSTREAM_FRACTION      1.00000000                   
     70     MANNING                   0.03                      
     71     STATUS                   ACTIVE                     
     71     UPSTREAM_FRACTION      1.00000000                   
     71     MANNING                   0.03                      
     72     STATUS                   ACTIVE                     
     72     UPSTREAM_FRACTION      1.00000000                   
     72     MANNING                   0.03                      
     73     STATUS                   ACTIVE                     
     73     UPSTREAM_FRACTION      1.00000000                   
     73     MANNING                   0.03                      
     74     STATUS                   ACTIVE                     
     74     UPSTREAM_FRACTION      1.00000000                   
     74     MANNING                   0.03                      
     75     STATUS                   ACTIVE                     
     75     UPSTREAM_FRACTION      1.00000000                   
     75     MANNING                   0.03                      
     76     STATUS                   ACTIVE                     
     76     UPSTREAM_FRACTION      1.00000000                   
     76     MANNING                   0.03                      
     77     STATUS                   ACTIVE                     
     77     UPSTREAM_FRACTION      1.00000000                   
     77     MANNING                   0.03                      
     78     STATUS                   ACTIVE                     
     78     UPSTREAM_FRACTION      1.00000000                   
     78     MANNING                   0.03                      
     79     STATUS                   ACTIVE                     
     79     UPSTREAM_FRACTION      1.00000000                   
     79     MANNING                   0.03                      
     80     STATUS                   ACTIVE                     
     80     UPSTREAM_FRACTION      1.00000000                   
     80     MANNING                   0.03                      
     81     STATUS                   ACTIVE                     
     81     UPSTREAM_FRACTION      1.00000000                   
     81     MANNING                   0.03                      
     82     STATUS                   ACTIVE                     
     82     UPSTREAM_FRACTION      1.00000000                   
     82     MANNING                   0.03                      
     83     STATUS                   ACTIVE                     
     83     UPSTREAM_FRACTION      1.00000000                   
     83     MANNING                   0.03                      
     84     STATUS                   ACTIVE                     
     84     UPSTREAM_FRACTION      1.00000000                   
     84     MANNING                   0.03                      
     85     STATUS                   ACTIVE                     
     85     UPSTREAM_FRACTION      1.00000000                   
     85     MANNING                   0.03                      
     86     STATUS                   ACTIVE                     
     86     UPSTREAM_FRACTION      1.00000000                   
     86     MANNING                   0.03                      
     87     STATUS                   ACTIVE                     
     87     UPSTREAM_FRACTION      1.00000000                   
     87     MANNING                   0.03                      
     88     STATUS                   ACTIVE                     
     88     UPSTREAM_FRACTION      1.00000000                   
     88     MANNING                   0.03                      
     89     STATUS                   ACTIVE                     
     89     UPSTREAM_FRACTION      1.00000000                   
     89     MANNING                   0.03                      
     90     STATUS                   ACTIVE                     
     90     UPSTREAM_FRACTION      1.00000000                   
     90     MANNING                   0.03                      
     91     STATUS                   ACTIVE                     
     91     UPSTREAM_FRACTION      1.00000000                   
     91     MANNING                   0.03                      
     92     STATUS                   ACTIVE                     
     92     UPSTREAM_FRACTION      1.00000000                   
     92     MANNING                   0.03                      
     93     STATUS                   ACTIVE                     
     93     UPSTREAM_FRACTION      1.00000000                   
     93     MANNING                   0.03                      
     94     STATUS                   ACTIVE                     
     94     UPSTREAM_FRACTION      1.00000000                   
     94     MANNING                   0.03                      
     95     STATUS                   ACTIVE                     
     95     UPSTREAM_FRACTION      1.00000000                   
     95     MANNING                   0.03                      
     96     STATUS                   ACTIVE                     
     96     UPSTREAM_FRACTION      1.00000000                   
     96     MANNING                   0.03                      
     97     STATUS                   ACTIVE                     
     97     UPSTREAM_FRACTION      1.00000000                   
     97     MANNING                   0.03                      
     98     STATUS                   ACTIVE                     
     98     UPSTREAM_FRACTION      1.00000000                   
     98     MANNING                   0.03                      
     99     STATUS                   ACTIVE                     
     99     UPSTREAM_FRACTION      1.00000000                   
     99     MANNING                   0.03                      
    100     STATUS                   ACTIVE                     
    100     UPSTREAM_FRACTION      1.00000000                   
    100     MANNING                   0.03                      
    101     STATUS                   ACTIVE                     
    101     UPSTREAM_FRACTION      1.00000000                   
    101     MANNING                   0.03                      
    102     STATUS                   ACTIVE                     
    102     UPSTREAM_FRACTION      1.00000000                   
    102     MANNING                   0.03                      
    103     STATUS                   ACTIVE                     
    103     UPSTREAM_FRACTION      1.00000000                   
    103     MANNING                   0.03                      
    104     STATUS                   ACTIVE                     
    104     UPSTREAM_FRACTION      1.00000000                   
    104     MANNING                   0.03                      
    105     STATUS                   ACTIVE                     
    105     UPSTREAM_FRACTION      1.00000000                   
    105     MANNING                   0.03                      
    106     STATUS                   ACTIVE                     
    106     UPSTREAM_FRACTION      1.00000000                   
    106     MANNING                   0.03                      
    107     STATUS                   ACTIVE                     
    107     UPSTREAM_FRACTION      1.00000000                   
    107     MANNING                   0.03                      
    108     STATUS                   ACTIVE                     
    108     UPSTREAM_FRACTION      1.00000000                   
    108     MANNING                   0.03                      
    109     STATUS                   ACTIVE                     
    109     UPSTREAM_FRACTION      1.00000000                   
    109     MANNING                   0.03                      
    110     STATUS                   ACTIVE                     
    110     UPSTREAM_FRACTION      1.00000000                   
    110     MANNING                   0.03                      
    111     STATUS                   ACTIVE                     
    111     UPSTREAM_FRACTION      1.00000000                   
    111     MANNING                   0.03                      
    112     STATUS                   ACTIVE                     
    112     UPSTREAM_FRACTION      1.00000000                   
    112     MANNING                   0.03                      
    113     STATUS                   ACTIVE                     
    113     UPSTREAM_FRACTION      1.00000000                   
    113     MANNING                   0.03                      
    114     STATUS                   ACTIVE                     
    114     UPSTREAM_FRACTION      1.00000000                   
    114     MANNING                   0.03                      
    115     STATUS                   ACTIVE                     
    115     UPSTREAM_FRACTION      1.00000000                   
    115     MANNING                   0.03                      
    116     STATUS                   ACTIVE                     
    116     UPSTREAM_FRACTION      1.00000000                   
    116     MANNING                   0.03                      
    117     STATUS                   ACTIVE                     
    117     UPSTREAM_FRACTION      1.00000000                   
    117     MANNING                   0.03                      
    118     STATUS                   ACTIVE                     
    118     UPSTREAM_FRACTION      1.00000000                   
    118     MANNING                   0.03                      
    119     STATUS                   ACTIVE                     
    119     UPSTREAM_FRACTION      1.00000000                   
    119     MANNING                   0.03                      
    120     STATUS                   ACTIVE                     
    120     UPSTREAM_FRACTION      1.00000000                   
    120     MANNING                   0.03                      
    121     STATUS                   ACTIVE                     
    121     UPSTREAM_FRACTION      1.00000000                   
    121     MANNING                   0.03                      
    122     STATUS                   ACTIVE                     
    122     UPSTREAM_FRACTION      1.00000000                   
    122     MANNING                   0.03                      
    123     STATUS                   ACTIVE                     
    123     UPSTREAM_FRACTION      1.00000000                   
    123     MANNING                   0.03                      
    124     STATUS                   ACTIVE                     
    124     UPSTREAM_FRACTION      1.00000000                   
    124     MANNING                   0.03                      
    125     STATUS                   ACTIVE                     
    125     UPSTREAM_FRACTION      1.00000000                   
    125     MANNING                   0.03                      
    126     STATUS                   ACTIVE                     
    126     UPSTREAM_FRACTION      1.00000000                   
    126     MANNING                   0.03                      
    127     STATUS                   ACTIVE                     
    127     UPSTREAM_FRACTION      1.00000000                   
    127     MANNING                   0.03                      
    128     STATUS                   ACTIVE                     
    128     UPSTREAM_FRACTION      1.00000000                   
    128     MANNING                   0.03                      
    129     STATUS                   ACTIVE                     
    129     UPSTREAM_FRACTION      1.00000000                   
    129     MANNING                   0.03                      
    130     STATUS                   ACTIVE                     
    130     UPSTREAM_FRACTION      1.00000000                   
    130     MANNING                   0.03                      
    131     STATUS                   ACTIVE                     
    131     UPSTREAM_FRACTION      1.00000000                   
    131     MANNING                   0.03                      
    132     STATUS                   ACTIVE                     
    132     UPSTREAM_FRACTION      1.00000000                   
    132     MANNING                   0.03                      
    133     STATUS                   ACTIVE                     
    133     UPSTREAM_FRACTION      1.00000000                   
    133     MANNING                   0.03                      
    134     STATUS                   ACTIVE                     
    134     UPSTREAM_FRACTION      1.00000000                   
    134     MANNING                   0.03                      
    135     STATUS                   ACTIVE                     
    135     UPSTREAM_FRACTION      1.00000000                   
    135     MANNING                   0.03                      
    136     STATUS                   ACTIVE                     
    136     UPSTREAM_FRACTION      1.00000000                   
    136     MANNING                   0.03                      
    137     STATUS                   ACTIVE                     
    137     UPSTREAM_FRACTION      1.00000000                   
    137     MANNING                   0.03                      
    138     STATUS                   ACTIVE                     
    138     UPSTREAM_FRACTION      1.00000000                   
    138     MANNING                   0.03                      
    139     STATUS                   ACTIVE                     
    139     UPSTREAM_FRACTION      1.00000000                   
    139     MANNING                   0.03                      
    140     STATUS                   ACTIVE                     
    140     UPSTREAM_FRACTION      1.00000000                   
    140     MANNING                   0.03                      
    141     STATUS                   ACTIVE                     
    141     UPSTREAM_FRACTION      1.00000000                   
    141     MANNING                   0.03                      
    142     STATUS                   ACTIVE                     
    142     UPSTREAM_FRACTION      1.00000000                   
    142     MANNING                   0.03                      
    143     STATUS                   ACTIVE                     
    143     UPSTREAM_FRACTION      1.00000000                   
    143     MANNING                   0.03                      
    144     STATUS                   ACTIVE                     
    144     UPSTREAM_FRACTION      1.00000000                   
    144     MANNING                   0.03                      
    145     STATUS                   ACTIVE                     
    145     UPSTREAM_FRACTION      1.00000000                   
    145     MANNING                   0.03                      
    146     STATUS                   ACTIVE                     
    146     UPSTREAM_FRACTION      1.00000000                   
    146     MANNING                   0.03                      
    147     STATUS                   ACTIVE                     
    147     UPSTREAM_FRACTION      1.00000000                   
    147     MANNING                   0.03                      
    148     STATUS                   ACTIVE                     
    148     UPSTREAM_FRACTION      1.00000000                   
    148     MANNING                   0.03                      
    149     STATUS                   ACTIVE                     
    149     UPSTREAM_FRACTION      1.00000000                   
    149     MANNING                   0.03                      
    150     STATUS                   ACTIVE                     
    150     UPSTREAM_FRACTION      1.00000000                   
    150     MANNING                   0.03                      
    151     STATUS                   ACTIVE                     
    151     UPSTREAM_FRACTION      1.00000000                   
    151     MANNING                   0.03                      
    152     STATUS                   ACTIVE                     
    152     UPSTREAM_FRACTION      1.00000000                   
    152     MANNING                   0.03                      
    153     STATUS                   ACTIVE                     
    153     UPSTREAM_FRACTION      1.00000000                   
    153     MANNING                   0.03                      
    154     STATUS                   ACTIVE                     
    154     UPSTREAM_FRACTION      1.00000000                   
    154     MANNING                   0.03                      
    155     STATUS                   ACTIVE                     
    155     UPSTREAM_FRACTION      1.00000000                   
    155     MANNING                   0.03                      
    156     STATUS                   ACTIVE                     
    156     UPSTREAM_FRACTION      1.00000000                   
    156     MANNING                   0.03                      
    157     STATUS                   ACTIVE                     
    157     UPSTREAM_FRACTION      1.00000000                   
    157     MANNING                   0.03                      
    158     STATUS                   ACTIVE                     
    158     UPSTREAM_FRACTION      1.00000000                   
    158     MANNING                   0.03                      
    159     STATUS                   ACTIVE                     
    159     UPSTREAM_FRACTION      1.00000000                   
    159     MANNING                   0.03                      
    160     STATUS                   ACTIVE                     
    160     UPSTREAM_FRACTION      1.00000000                   
    160     MANNING                   0.03                      
    161     STATUS                   ACTIVE                     
    161     UPSTREAM_FRACTION      1.00000000                   
    161     MANNING                   0.03                      
    162     STATUS                   ACTIVE                     
    162     UPSTREAM_FRACTION      1.00000000                   
    162     MANNING                   0.03                      
    163     STATUS                   ACTIVE                     
    163     UPSTREAM_FRACTION      1.00000000                   
    163     MANNING                   0.03                      
    164     STATUS                   ACTIVE                     
    164     UPSTREAM_FRACTION      1.00000000                   
    164     MANNING                   0.03                      
    165     STATUS                   ACTIVE                     
    165     UPSTREAM_FRACTION      1.00000000                   
    165     MANNING                   0.03                      
    166     STATUS                   ACTIVE                     
    166     UPSTREAM_FRACTION      1.00000000                   
    166     MANNING                   0.03                      
    167     STATUS                   ACTIVE                     
    167     UPSTREAM_FRACTION      1.00000000                   
    167     MANNING                   0.03                      
    168     STATUS                   ACTIVE                     
    168     UPSTREAM_FRACTION      1.00000000                   
    168     MANNING                   0.03                      
    169     STATUS                   ACTIVE                     
    169     UPSTREAM_FRACTION      1.00000000                   
    169     MANNING                   0.03                      
    170     STATUS                   ACTIVE                     
    170     UPSTREAM_FRACTION      1.00000000                   
    170     MANNING                   0.03                      
    171     STATUS                   ACTIVE                     
    171     UPSTREAM_FRACTION      1.00000000                   
    171     MANNING                   0.03                      
    172     STATUS                   ACTIVE                     
    172     UPSTREAM_FRACTION      1.00000000                   
    172     MANNING                   0.03                      
    173     STATUS                   ACTIVE                     
    173     UPSTREAM_FRACTION      1.00000000                   
    173     MANNING                   0.03                      
    174     STATUS                   ACTIVE                     
    174     UPSTREAM_FRACTION      1.00000000                   
    174     MANNING                   0.03                      
    175     STATUS                   ACTIVE                     
    175     UPSTREAM_FRACTION      1.00000000                   
    175     MANNING                   0.03                      
    176     STATUS                   ACTIVE                     
    176     UPSTREAM_FRACTION      1.00000000                   
    176     MANNING                   0.03                      
    177     STATUS                   ACTIVE                     
    177     UPSTREAM_FRACTION      1.00000000                   
    177     MANNING                   0.03                      
    178     STATUS                   ACTIVE                     
    178     UPSTREAM_FRACTION      1.00000000                   
    178     MANNING                   0.03                      
    179     STATUS                   ACTIVE                     
    179     UPSTREAM_FRACTION      1.00000000                   
    179     MANNING                   0.03                      
    180     STATUS                   ACTIVE                     
    180     UPSTREAM_FRACTION      1.00000000                   
    180     MANNING                   0.03                      
    181     STATUS                   ACTIVE                     
    181     UPSTREAM_FRACTION      1.00000000                   
    181     MANNING                   0.03                      
    182     STATUS                   ACTIVE                     
    182     UPSTREAM_FRACTION      1.00000000                   
    182     MANNING                   0.03                      
    183     STATUS                   ACTIVE                     
    183     UPSTREAM_FRACTION      1.00000000                   
    183     MANNING                   0.03                      
    184     STATUS                   ACTIVE                     
    184     UPSTREAM_FRACTION      1.00000000                   
    184     MANNING                   0.03                      
    185     STATUS                   ACTIVE                     
    185     UPSTREAM_FRACTION      1.00000000                   
    185     MANNING                   0.03                      
    186     STATUS                   ACTIVE                     
    186     UPSTREAM_FRACTION      1.00000000                   
    186     MANNING                   0.03                      
    187     STATUS                   ACTIVE                     
    187     UPSTREAM_FRACTION      1.00000000                   
    187     MANNING                   0.03                      
    188     STATUS                   ACTIVE                     
    188     UPSTREAM_FRACTION      1.00000000                   
    188     MANNING                   0.03                      
    189     STATUS                   ACTIVE                     
    189     UPSTREAM_FRACTION      1.00000000                   
    189     MANNING                   0.03                      
    190     STATUS                   ACTIVE                     
    190     UPSTREAM_FRACTION      1.00000000                   
    190     MANNING                   0.03                      
    191     STATUS                   ACTIVE                     
    191     UPSTREAM_FRACTION      1.00000000                   
    191     MANNING                   0.03                      
    192     STATUS                   ACTIVE                     
    192     UPSTREAM_FRACTION      1.00000000                   
    192     MANNING                   0.03                      
    193     STATUS                   ACTIVE                     
    193     UPSTREAM_FRACTION      1.00000000                   
    193     MANNING                   0.03                      
    194     STATUS                   ACTIVE                     
    194     UPSTREAM_FRACTION      1.00000000                   
    194     MANNING                   0.03                      
    195     STATUS                   ACTIVE                     
    195     UPSTREAM_FRACTION      1.00000000                   
    195     MANNING                   0.03                      
    196     STATUS                   ACTIVE                     
    196     UPSTREAM_FRACTION      1.00000000                   
    196     MANNING                   0.03                      
    197     STATUS                   ACTIVE                     
    197     UPSTREAM_FRACTION      1.00000000                   
    197     MANNING                   0.03                      
    198     STATUS                   ACTIVE                     
    198     UPSTREAM_FRACTION      1.00000000                   
    198     MANNING                   0.03                      
    199     STATUS                   ACTIVE                     
    199     UPSTREAM_FRACTION      1.00000000                   
    199     MANNING                   0.03                      
    200     STATUS                   ACTIVE                     
    200     UPSTREAM_FRACTION      1.00000000                   
    200     MANNING                   0.03                      
    201     STATUS                   ACTIVE                     
    201     UPSTREAM_FRACTION      1.00000000                   
    201     MANNING                   0.03                      
    202     STATUS                   ACTIVE                     
    202     UPSTREAM_FRACTION      1.00000000                   
    202     MANNING                   0.03                      
    203     STATUS                   ACTIVE                     
    203     UPSTREAM_FRACTION      1.00000000                   
    203     MANNING                   0.03                      
    204     STATUS                   ACTIVE                     
    204     UPSTREAM_FRACTION      1.00000000                   
    204     MANNING                   0.03                      
    205     STATUS                   ACTIVE                     
    205     UPSTREAM_FRACTION      1.00000000                   
    205     MANNING                   0.03                      
    206     STATUS                   ACTIVE                     
    206     UPSTREAM_FRACTION      1.00000000                   
    206     MANNING                   0.03                      
    207     STATUS                   ACTIVE                     
    207     UPSTREAM_FRACTION      1.00000000                   
    207     MANNING                   0.03                      
    208     STATUS                   ACTIVE                     
    208     UPSTREAM_FRACTION      1.00000000                   
    208     MANNING                   0.03                      
    209     STATUS                   ACTIVE                     
    209     UPSTREAM_FRACTION      1.00000000                   
    209     MANNING                   0.03                      
    210     STATUS                   ACTIVE                     
    210     UPSTREAM_FRACTION      1.00000000                   
    210     MANNING                   0.03                      
    211     STATUS                   ACTIVE                     
    211     UPSTREAM_FRACTION      1.00000000                   
    211     MANNING                   0.03                      
    212     STATUS                   ACTIVE                     
    212     UPSTREAM_FRACTION      1.00000000                   
    212     MANNING                   0.03                      
    213     STATUS                   ACTIVE                     
    213     UPSTREAM_FRACTION      1.00000000                   
    213     MANNING                   0.03                      
    214     STATUS                   ACTIVE                     
    214     UPSTREAM_FRACTION      1.00000000                   
    214     MANNING                   0.03                      
    215     STATUS                   ACTIVE                     
    215     UPSTREAM_FRACTION      1.00000000                   
    215     MANNING                   0.03                      
    216     STATUS                   ACTIVE                     
    216     UPSTREAM_FRACTION      1.00000000                   
    216     MANNING                   0.03                      
    217     STATUS                   ACTIVE                     
    217     UPSTREAM_FRACTION      1.00000000                   
    217     MANNING                   0.03                      
    218     STATUS                   ACTIVE                     
    218     UPSTREAM_FRACTION      1.00000000                   
    218     MANNING                   0.03                      
    219     STATUS                   ACTIVE                     
    219     UPSTREAM_FRACTION      1.00000000                   
    219     MANNING                   0.03                      
    220     STATUS                   ACTIVE                     
    220     UPSTREAM_FRACTION      1.00000000                   
    220     MANNING                   0.03                      
    221     STATUS                   ACTIVE                     
    221     UPSTREAM_FRACTION      1.00000000                   
    221     MANNING                   0.03                      
    222     STATUS                   ACTIVE                     
    222     UPSTREAM_FRACTION      1.00000000                   
    222     MANNING                   0.03                      
    223     STATUS                   ACTIVE                     
    223     UPSTREAM_FRACTION      1.00000000                   
    223     MANNING                   0.03                      
    224     STATUS                   ACTIVE                     
    224     UPSTREAM_FRACTION      1.00000000                   
    224     MANNING                   0.03                      
    225     STATUS                   ACTIVE                     
    225     UPSTREAM_FRACTION      1.00000000                   
    225     MANNING                   0.03                      
    226     STATUS                   ACTIVE                     
    226     UPSTREAM_FRACTION      1.00000000                   
    226     MANNING                   0.03                      
    227     STATUS                   ACTIVE                     
    227     UPSTREAM_FRACTION      1.00000000                   
    227     MANNING                   0.03                      
    228     STATUS                   ACTIVE                     
    228     UPSTREAM_FRACTION      1.00000000                   
    228     MANNING                   0.03                      
    229     STATUS                   ACTIVE                     
    229     UPSTREAM_FRACTION      1.00000000                   
    229     MANNING                   0.03                      
    230     STATUS                   ACTIVE                     
    230     UPSTREAM_FRACTION      1.00000000                   
    230     MANNING                   0.03                      
    231     STATUS                   ACTIVE                     
    231     UPSTREAM_FRACTION      1.00000000                   
    231     MANNING                   0.03                      
    232     STATUS                   ACTIVE                     
    232     UPSTREAM_FRACTION      1.00000000                   
    232     MANNING                   0.03                      
    233     STATUS                   ACTIVE                     
    233     UPSTREAM_FRACTION      1.00000000                   
    233     MANNING                   0.03                      
    234     STATUS                   ACTIVE                     
    234     UPSTREAM_FRACTION      1.00000000                   
    234     MANNING                   0.03                      
    235     STATUS                   ACTIVE                     
    235     UPSTREAM_FRACTION      1.00000000                   
    235     MANNING                   0.03                      
    236     STATUS                   ACTIVE                     
    236     UPSTREAM_FRACTION      1.00000000                   
    236     MANNING                   0.03                      
    237     STATUS                   ACTIVE                     
    237     UPSTREAM_FRACTION      1.00000000                   
    237     MANNING                   0.03                      
    238     STATUS                   ACTIVE                     
    238     UPSTREAM_FRACTION      1.00000000                   
    238     MANNING                   0.03                      
    239     STATUS                   ACTIVE                     
    239     UPSTREAM_FRACTION      1.00000000                   
    239     MANNING                   0.03                      
    240     STATUS                   ACTIVE                     
    240     UPSTREAM_FRACTION      1.00000000                   
    240     MANNING                   0.03                      
    241     STATUS                   ACTIVE                     
    241     UPSTREAM_FRACTION      1.00000000                   
    241     MANNING                   0.03                      
    242     STATUS                   ACTIVE                     
    242     UPSTREAM_FRACTION      1.00000000                   
    242     MANNING                   0.03                      
    243     STATUS                   ACTIVE                     
    243     UPSTREAM_FRACTION      1.00000000                   
    243     MANNING                   0.03                      
    244     STATUS                   ACTIVE                     
    244     UPSTREAM_FRACTION      1.00000000                   
    244     MANNING                   0.03                      
    245     STATUS                   ACTIVE                     
    245     UPSTREAM_FRACTION      1.00000000                   
    245     MANNING                   0.03                      
    246     STATUS                   ACTIVE                     
    246     UPSTREAM_FRACTION      1.00000000                   
    246     MANNING                   0.03                      
    247     STATUS                   ACTIVE                     
    247     UPSTREAM_FRACTION      1.00000000                   
    247     MANNING                   0.03                      
    248     STATUS                   ACTIVE                     
    248     UPSTREAM_FRACTION      1.00000000                   
    248     MANNING                   0.03                      
    249     STATUS                   ACTIVE                     
    249     UPSTREAM_FRACTION      1.00000000                   
    249     MANNING                   0.03                      
    250     STATUS                   ACTIVE                     
    250     UPSTREAM_FRACTION      1.00000000                   
    250     MANNING                   0.03                      
    251     STATUS                   ACTIVE                     
    251     UPSTREAM_FRACTION      1.00000000                   
    251     MANNING                   0.03                      
    252     STATUS                   ACTIVE                     
    252     UPSTREAM_FRACTION      1.00000000                   
    252     MANNING                   0.03                      
    253     STATUS                   ACTIVE                     
    253     UPSTREAM_FRACTION      1.00000000                   
    253     MANNING                   0.03                      
    254     STATUS                   ACTIVE                     
    254     UPSTREAM_FRACTION      1.00000000                   
    254     MANNING                   0.03                      
    255     STATUS                   ACTIVE                     
    255     UPSTREAM_FRACTION      1.00000000                   
    255     MANNING                   0.03                      
    256     STATUS                   ACTIVE                     
    256     UPSTREAM_FRACTION      1.00000000                   
    256     MANNING                   0.03                      
    257     STATUS                   ACTIVE                     
    257     UPSTREAM_FRACTION      1.00000000                   
    257     MANNING                   0.03                      
    258     STATUS                   ACTIVE                     
    258     UPSTREAM_FRACTION      1.00000000                   
    258     MANNING                   0.03                      
    259     STATUS                   ACTIVE                     
    259     UPSTREAM_FRACTION      1.00000000                   
    259     MANNING                   0.03                      
    260     STATUS                   ACTIVE                     
    260     UPSTREAM_FRACTION      1.00000000                   
    260     MANNING                   0.03                      
    261     STATUS                   ACTIVE                     
    261     UPSTREAM_FRACTION      1.00000000                   
    261     MANNING                   0.03                      
    262     STATUS                   ACTIVE                     
    262     UPSTREAM_FRACTION      1.00000000                   
    262     MANNING                   0.03                      
    263     STATUS                   ACTIVE                     
    263     UPSTREAM_FRACTION      1.00000000                   
    263     MANNING                   0.03                      
    264     STATUS                   ACTIVE                     
    264     UPSTREAM_FRACTION      1.00000000                   
    264     MANNING                   0.03                      
    265     STATUS                   ACTIVE                     
    265     UPSTREAM_FRACTION      1.00000000                   
    265     MANNING                   0.03                      
    266     STATUS                   ACTIVE                     
    266     UPSTREAM_FRACTION      1.00000000                   
    266     MANNING                   0.03                      
    267     STATUS                   ACTIVE                     
    267     UPSTREAM_FRACTION      1.00000000                   
    267     MANNING                   0.03                      
    268     STATUS                   ACTIVE                     
    268     UPSTREAM_FRACTION      1.00000000                   
    268     MANNING                   0.03                      
    269     STATUS                   ACTIVE                     
    269     UPSTREAM_FRACTION      1.00000000                   
    269     MANNING                   0.03                      
    270     STATUS                   ACTIVE                     
    270     UPSTREAM_FRACTION      1.00000000                   
    270     MANNING                   0.03                      
 ---------------------------------------------------------------



 SFR PACKAGE (SFR) CONNECTED REACH UPSTREAM FRACTION DATA
 ----------------------------------
            DOWNSTREAM             
   REACH     REACH 1    FRACTION 1 
 ----------------------------------
     1          2       1.0000     
     2          3       1.0000     
     3          4       1.0000     
     4          5       1.0000     
     5          6       1.0000     
     6          7       1.0000     
     7          8       1.0000     
     8          9       1.0000     
     9          10      1.0000     
     10         11      1.0000     
     11         12      1.0000     
     12         13      1.0000     
     13         14      1.0000     
     14         15      1.0000     
     15         16      1.0000     
     16         17      1.0000     
     17         18      1.0000     
     18         19      1.0000     
     19         20      1.0000     
     20         21      1.0000     
     21         22      1.0000     
     22         23      1.0000     
     23         24      1.0000     
     24         25      1.0000     
     25         26      1.0000     
     26         27      1.0000     
     27         28      1.0000     
     28         29      1.0000     
     29         30      1.0000     
     30         31      1.0000     
     31         32      1.0000     
     32         33      1.0000     
     33         34      1.0000     
     34         35      1.0000     
     35         36      1.0000     
     36         37      1.0000     
     37         38      1.0000     
     38         39      1.0000     
     39         40      1.0000     
     40         41      1.0000     
     41         42      1.0000     
     42         43      1.0000     
     43         44      1.0000     
     44         45      1.0000     
     45         46      1.0000     
     46         47      1.0000     
     47         48      1.0000     
     48         49      1.0000     
     49         50      1.0000     
     50         51      1.0000     
     51         52      1.0000     
     52         53      1.0000     
     53         54      1.0000     
     54         55      1.0000     
     55         56      1.0000     
     56         57      1.0000     
     57         58      1.0000     
     58         59      1.0000     
     59         60      1.0000     
     60         61      1.0000     
     61         62      1.0000     
     62         63      1.0000     
     63         64      1.0000     
     64         65      1.0000     
     65         66      1.0000     
     66         67      1.0000     
     67         68      1.0000     
     68         69      1.0000     
     69         70      1.0000     
     70         71      1.0000     
     71         72      1.0000     
     72         73      1.0000     
     73         74      1.0000     
     74         75      1.0000     
     75         76      1.0000     
     76         77      1.0000     
     77         78      1.0000     
     78         79      1.0000     
     79         80      1.0000     
     80         81      1.0000     
     81         82      1.0000     
     82         83      1.0000     
     83         84      1.0000     
     84         85      1.0000     
     85         86      1.0000     
     86         87      1.0000     
     87         88      1.0000     
     88         89      1.0000     
     89         90      1.0000     
     90         91      1.0000     
     91         92      1.0000     
     92         93      1.0000     
     93         94      1.0000     
     94         95      1.0000     
     95         96      1.0000     
     96         97      1.0000     
     97         98      1.0000     
     98         99      1.0000     
     99        100      1.0000     
    100        101      1.0000     
    101        102      1.0000     
    102        103      1.0000     
    103        104      1.0000     
    104        105      1.0000     
    105        106      1.0000     
    106        107      1.0000     
    107        108      1.0000     
    108        109      1.0000     
    109        110      1.0000     
    110        111      1.0000     
    111        112      1.0000     
    112        113      1.0000     
    113        114      1.0000     
    114        115      1.0000     
    115        116      1.0000     
    116        117      1.0000     
    117        118      1.0000     
    118        119      1.0000     
    119        120      1.0000     
    120        121      1.0000     
    121        122      1.0000     
    122        123      1.0000     
    123        124      1.0000     
    124        125      1.0000     
    125        126      1.0000     
    126        127      1.0000     
    127        128      1.0000     
    128        129      1.0000     
    129        130      1.0000     
    130        131      1.0000     
    131        132      1.0000     
    132        133      1.0000     
    133        134      1.0000     
    134        135      1.0000     
    135        136      1.0000     
    136        137      1.0000     
    137        138      1.0000     
    138        139      1.0000     
    139        140      1.0000     
    140        141      1.0000     
    141        142      1.0000     
    142        143      1.0000     
    143        144      1.0000     
    144        145      1.0000     
    145        146      1.0000     
    146        147      1.0000     
    147        148      1.0000     
    148        149      1.0000     
    149        150      1.0000     
    150        151      1.0000     
    151        152      1.0000     
    152        153      1.0000     
    153        154      1.0000     
    154        155      1.0000     
    155        156      1.0000     
    156        157      1.0000     
    157        158      1.0000     
    158        159      1.0000     
    159        160      1.0000     
    160        161      1.0000     
    161        162      1.0000     
    162        163      1.0000     
    163        164      1.0000     
    164        165      1.0000     
    165        166      1.0000     
    166        167      1.0000     
    167        168      1.0000     
    168        169      1.0000     
    169        170      1.0000     
    170        171      1.0000     
    171        172      1.0000     
    172        173      1.0000     
    173        174      1.0000     
    174        175      1.0000     
    175        176      1.0000     
    176        177      1.0000     
    177        178      1.0000     
    178        179      1.0000     
    179        180      1.0000     
    180        181      1.0000     
    181        182      1.0000     
    182        183      1.0000     
    183        184      1.0000     
    184        185      1.0000     
    185        186      1.0000     
    186        187      1.0000     
    187        188      1.0000     
    188        189      1.0000     
    189        190      1.0000     
    190        191      1.0000     
    191        192      1.0000     
    192        193      1.0000     
    193        194      1.0000     
    194        195      1.0000     
    195        196      1.0000     
    196        197      1.0000     
    197        198      1.0000     
    198        199      1.0000     
    199        200      1.0000     
    200        201      1.0000     
    201        202      1.0000     
    202        203      1.0000     
    203        204      1.0000     
    204        205      1.0000     
    205        206      1.0000     
    206        207      1.0000     
    207        208      1.0000     
    208        209      1.0000     
    209        210      1.0000     
    210        211      1.0000     
    211        212      1.0000     
    212        213      1.0000     
    213        214      1.0000     
    214        215      1.0000     
    215        216      1.0000     
    216        217      1.0000     
    217        218      1.0000     
    218        219      1.0000     
    219        220      1.0000     
    220        221      1.0000     
    221        222      1.0000     
    222        223      1.0000     
    223        224      1.0000     
    224        225      1.0000     
    225        226      1.0000     
    226        227      1.0000     
    227        228      1.0000     
    228        229      1.0000     
    229        230      1.0000     
    230        231      1.0000     
    231        232      1.0000     
    232        233      1.0000     
    233        234      1.0000     
    234        235      1.0000     
    235        236      1.0000     
    236        237      1.0000     
    237        238      1.0000     
    238        239      1.0000     
    239        240      1.0000     
    240        241      1.0000     
    241        242      1.0000     
    242        243      1.0000     
    243        244      1.0000     
    244        245      1.0000     
    245        246      1.0000     
    246        247      1.0000     
    247        248      1.0000     
    248        249      1.0000     
    249        250      1.0000     
    250        251      1.0000     
    251        252      1.0000     
    252        253      1.0000     
    253        254      1.0000     
    254        255      1.0000     
    255        256      1.0000     
    256        257      1.0000     
    257        258      1.0000     
    258        259      1.0000     
    259        260      1.0000     
    260        261      1.0000     
    261        262      1.0000     
    262        263      1.0000     
    263        264      1.0000     
    264        265      1.0000     
    265        266      1.0000     
    266        267      1.0000     
    267        268      1.0000     
    268        269      1.0000     
    269        270      1.0000     
    270                            
 ----------------------------------


 UBDSV1 SAVING           STO-SS ON UNIT   1019 AT TIME STEP      1, STRESS PERIOD      1
 UBDSV1 SAVING           STO-SY ON UNIT   1019 AT TIME STEP      1, STRESS PERIOD      1
 UBDSV1 SAVING     FLOW-JA-FACE ON UNIT   1019 AT TIME STEP      1, STRESS PERIOD      1
 UBDSV06 SAVING              GHB IN MODEL EXPERIMENTAL     PACKAGE EXPERIMENTAL    CONNECTED TO MODEL EXPERIMENTAL     PACKAGE GHB              ON UNIT   1019 AT TIME STEP      1, STRESS PERIOD      1

 GHB PACKAGE (GHB) FLOW RATES   PERIOD      1   STEP        1
 --------------------------------------------------------------------
   NUMBER   CELLID                    RATE       NAME                
 --------------------------------------------------------------------
     1      (1,842)               69.380874      RED                 
     2      (1,928)               71.489486      RED                 
     3      (1,1026)              73.969140      RED                 
     4      (1,1118)              76.005026      RED                 
     5      (1,1225)              77.547174      RED                 
     6      (1,1350)              79.453757      RED                 
     7      (1,1487)              81.091701      RED                 
     8      (1,1620)              81.746708      RED                 
     9      (1,1764)              81.517792      RED                 
     10     (1,1895)              78.226942      RED                 
     11     (1,2040)              77.761107      RED                 
     12     (1,2139)              74.021018      RED                 
     13     (1,2222)              72.696054      RED                 
     14     (1,2310)              75.026792      RED                 
     15     (1,2394)              75.326389      RED                 
     16     (1,2480)              74.663645      RED                 
     17     (1,2565)              74.619968      RED                 
     18     (1,2667)              74.262298      RED                 
     19     (1,2822)              74.781249      RED                 
     20     (1,2979)              74.818829      RED                 
     21     (1,3096)              74.257462      RED                 
     22     (1,3209)              68.588907      RED                 
     23     (1,3210)              68.410880      RED                 
     24     (1,3283)              75.571116      RED                 
     25     (1,3352)              77.063900      RED                 
     26     (1,3432)              77.393030      RED                 
     27     (1,440)               190.54941      ORANGERED           
     28     (1,516)               164.12286      ORANGERED           
     29     (1,596)               145.24199      ORANGERED           
     30     (1,677)               130.81881      ORANGERED           
     31     (1,759)               120.06139      ORANGERED           
     32     (1,315)               164.22227      ORANGE              
     33     (1,316)               145.03460      ORANGE              
     34     (1,317)               130.46074      ORANGE              
     35     (1,318)               119.04516      ORANGE              
     36     (1,319)               109.31311      ORANGE              
     37     (1,320)               100.55962      ORANGE              
     38     (1,321)               92.536013      ORANGE              
     39     (1,322)               85.052182      ORANGE              
     40     (1,323)               78.123957      ORANGE              
     41     (1,324)               71.423153      ORANGE              
     42     (1,325)               64.785943      ORANGE              
     43     (1,326)               58.113257      ORANGE              
     44     (1,327)               51.280713      ORANGE              
     45     (1,328)               44.628151      ORANGE              
     46     (1,329)               37.974513      ORANGE              
     47     (1,330)               31.254308      ORANGE              
     48     (1,331)               24.229012      ORANGE              
     49     (1,332)               17.729459      ORANGE              
     50     (1,333)               11.479623      ORANGE              
     51     (1,334)               5.5443981      ORANGE              
     52     (1,335)              -0.29227498     ORANGE              
     53     (1,336)              -5.8011643      ORANGE              
     54     (1,337)              -11.668081      ORANGE              
     55     (1,338)              -7.5638528      ORANGE              
     56     (1,339)              -3.2156725      ORANGE              
     57     (1,340)              -5.6088753      ORANGE              
     58     (1,341)              -12.679654      ORANGE              
     59     (1,342)              -18.805742      ORANGE              
     60     (1,343)              -16.219180      ORANGE              
     61     (1,344)              -15.052991      ORANGE              
     62     (1,345)              -23.959629      ORANGE              
     63     (1,346)              -26.442139      ORANGE              
     64     (1,347)              -27.266868      ORANGE              
     65     (1,348)              -41.747134      ORANGE              
     66     (1,349)              -68.386994      ORANGE              
     67     (1,350)              -60.403639      ORANGE              
     68     (1,51)                82.192020      GOLD                
     69     (1,84)                75.953163      GOLD                
     70     (1,116)               69.701656      GOLD                
     71     (1,150)               63.083671      GOLD                
     72     (1,186)               55.081094      GOLD                
     73     (1,224)               44.553013      GOLD                
     74     (1,264)               28.836104      GOLD                
     75     (1,1)                 61.317183      YELLOWGREEN         
     76     (1,2)                 62.452843      YELLOWGREEN         
     77     (1,3)                 65.437363      YELLOWGREEN         
     78     (1,4)                 71.752008      YELLOWGREEN         
     79     (1,5)                 76.146265      YELLOWGREEN         
     80     (1,6)                 76.794707      YELLOWGREEN         
     81     (1,9)                 78.274910      YELLOWGREEN         
     82     (1,10)                70.606782      YELLOWGREEN         
     83     (1,11)                63.967815      YELLOWGREEN         
     84     (1,12)                58.037237      YELLOWGREEN         
     85     (1,13)                52.585491      YELLOWGREEN         
     86     (1,14)                47.372983      YELLOWGREEN         
     87     (1,15)                42.418187      YELLOWGREEN         
     88     (1,16)                37.644714      YELLOWGREEN         
     89     (1,17)                32.926277      YELLOWGREEN         
     90     (1,18)                27.985212      YELLOWGREEN         
     91     (1,19)                23.110986      YELLOWGREEN         
     92     (1,20)                18.760948      YELLOWGREEN         
     93     (1,21)                14.584217      YELLOWGREEN         
     94     (1,22)                10.638816      YELLOWGREEN         
     95     (1,23)                7.5142644      YELLOWGREEN         
     96     (1,52)               -5.9019592      LIMEGREEN           
     97     (1,85)               -4.7500908      LIMEGREEN           
     98     (1,117)              -3.9381954      LIMEGREEN           
     99     (1,151)              -3.0458961      LIMEGREEN           
    100     (1,187)              -1.8621004      LIMEGREEN           
    101     (1,265)              -30.553730      AQUA                
    102     (1,351)              -30.367345      AQUA                
    103     (1,441)              -30.201835      AQUA                
    104     (1,517)              -30.139577      AQUA                
    105     (1,597)              -30.173841      AQUA                
    106     (1,678)              -30.280652      AQUA                
    107     (1,760)              -30.439284      AQUA                
    108     (1,843)              -30.640175      AQUA                
    109     (1,929)              -30.865307      AQUA                
    110     (1,1027)             -31.104340      AQUA                
    111     (1,1119)             -31.367021      AQUA                
    112     (1,1226)             -31.647300      AQUA                
    113     (1,1351)             -31.905614      AQUA                
    114     (1,1621)             -36.135878      DARKTURQUOISE       
    115     (1,1765)             -37.682795      DARKTURQUOISE       
    116     (1,1896)             -39.518060      DARKTURQUOISE       
    117     (1,2041)             -41.511519      DARKTURQUOISE       
    118     (1,2140)             -43.648152      DARKTURQUOISE       
    119     (1,2223)             -45.959824      DARKTURQUOISE       
    120     (1,2311)             -48.440997      DARKTURQUOISE       
    121     (1,2395)             -51.068552      DARKTURQUOISE       
    122     (1,2481)             -53.909409      DARKTURQUOISE       
    123     (1,2566)             -56.956933      DARKTURQUOISE       
    124     (1,2668)             -60.161708      DARKTURQUOISE       
    125     (1,2823)             -63.972312      DARKTURQUOISE       
    126     (1,2980)             -67.922636      DARKTURQUOISE       
    127     (1,3097)             -71.998896      DARKTURQUOISE       
    128     (1,3211)             -76.211474      DARKTURQUOISE       
    129     (1,3284)             -80.657176      DARKTURQUOISE       
    130     (1,3353)             -85.306066      DARKTURQUOISE       
    131     (1,3433)             -89.966267      DARKTURQUOISE       
    132     (1,3504)             -94.881624      DARKTURQUOISE       
    133     (1,3569)             -100.23066      DARKTURQUOISE       
    134     (1,3619)             -106.05159      DARKTURQUOISE       
    135     (1,3666)             -112.48876      DARKTURQUOISE       
    136     (1,3709)             -103.86984      DARKTURQUOISE       
    137     (1,3745)             -45.814469      DARKTURQUOISE       
    138     (1,3774)              9.1900303      ROYALBLUE           
    139     (1,3775)              36.910829      ROYALBLUE           
    140     (1,3776)              63.262005      ROYALBLUE           
    141     (1,3777)              94.816656      ROYALBLUE           
    142     (1,3778)              108.91572      ROYALBLUE           
    143     (1,3779)              140.44808      ROYALBLUE           
    144     (1,3780)              150.21869      ROYALBLUE           
    145     (1,3781)              160.67913      ROYALBLUE           
    146     (1,3782)              168.33728      ROYALBLUE           
    147     (1,3783)              176.41158      ROYALBLUE           
    148     (1,3760)              152.78350      BLUE                
    149     (1,3773)              188.80650      BLUE                
    150     (1,3726)              102.03958      BLUEVIOLET          
    151     (1,3727)              90.346213      BLUEVIOLET          
    152     (1,3728)              72.360360      BLUEVIOLET          
    153     (1,3729)              59.773227      BLUEVIOLET          
    154     (1,3730)              54.539969      BLUEVIOLET          
    155     (1,3731)              73.947623      BLUEVIOLET          
    156     (1,3732)              58.090549      BLUEVIOLET          
    157     (1,3733)              49.393089      BLUEVIOLET          
    158     (1,3734)              45.945548      BLUEVIOLET          
    159     (1,3735)              40.153025      BLUEVIOLET          
    160     (1,3736)              43.378987      BLUEVIOLET          
    161     (1,3737)              42.612932      BLUEVIOLET          
    162     (1,3738)              33.343611      BLUEVIOLET          
    163     (1,3739)              33.153535      BLUEVIOLET          
    164     (1,3740)              24.188904      BLUEVIOLET          
    165     (1,3741)              28.998337      BLUEVIOLET          
    166     (1,3742)              40.858492      BLUEVIOLET          
    167     (1,3743)              51.816749      BLUEVIOLET          
    168     (1,3744)              50.318306      BLUEVIOLET          
    169     (1,3703)              58.879048      PURPLE              
    170     (1,3704)              90.029133      PURPLE              
    171     (1,3705)              108.89670      PURPLE              
    172     (1,3706)              125.32449      PURPLE              
    173     (1,3707)              129.28290      PURPLE              
    174     (1,3708)              139.40612      PURPLE              
    175     (1,3663)              108.36717      MEDIUMVIOLETRED     
    176     (1,3664)              115.68935      MEDIUMVIOLETRED     
    177     (1,3665)              119.27004      MEDIUMVIOLETRED     
    178     (1,3503)             -42.095390      CRIMSON             
    179     (1,3568)              23.621058      CRIMSON             
    180     (1,3618)              72.929016      CRIMSON             
 --------------------------------------------------------------------



 UBDSV06 SAVING              RCH IN MODEL EXPERIMENTAL     PACKAGE EXPERIMENTAL    CONNECTED TO MODEL EXPERIMENTAL     PACKAGE RCH              ON UNIT   1019 AT TIME STEP      1, STRESS PERIOD      1

 RCH PACKAGE (RCH) FLOW RATES   PERIOD      1   STEP        1
 -----------------------------------------------
   NUMBER   CELLID                    RATE      
 -----------------------------------------------
     1      (1,7)                 1.36966235E-02
     2      (1,8)                 1.36963559E-02
     3      (1,24)                5.47859589E-02
     4      (1,25)                5.47859589E-02
     5      (1,26)                5.47863602E-02
     6      (1,27)                5.47852900E-02
     7      (1,28)                5.47961258E-02
     8      (1,29)                1.36966235E-02
     9      (1,30)                1.36964897E-02
     10     (1,31)                1.36968910E-02
     11     (1,32)                1.36967573E-02
     12     (1,33)                1.36958208E-02
     13     (1,34)                1.36966235E-02
     14     (1,35)                1.36963559E-02
     15     (1,36)                1.36983626E-02
     16     (1,37)                5.47688356E-02
     17     (1,38)                5.48141855E-02
     18     (1,39)                5.48250214E-02
     19     (1,40)                5.47860926E-02
     20     (1,41)                5.47859589E-02
     21     (1,42)                5.47860926E-02
     22     (1,43)                5.47860926E-02
     23     (1,44)                5.47859589E-02
     24     (1,45)                5.47855575E-02
     25     (1,46)                5.47854238E-02
     26     (1,47)                5.48246200E-02
     27     (1,48)                5.48242187E-02
     28     (1,49)                5.47863602E-02
     29     (1,50)                5.47889019E-02
     30     (1,53)                5.48248876E-02
     31     (1,54)                5.47858251E-02
     32     (1,55)                5.47860926E-02
     33     (1,56)                5.47854238E-02
     34     (1,57)                5.47856913E-02
     35     (1,58)                5.48073630E-02
     36     (1,59)                1.36979612E-02
     37     (1,60)                1.36963559E-02
     38     (1,61)                1.36968910E-02
     39     (1,62)                1.36968910E-02
     40     (1,63)                1.36966235E-02
     41     (1,64)                1.36966235E-02
     42     (1,65)                1.36960884E-02
     43     (1,66)                1.36959546E-02
     44     (1,67)                1.36962222E-02
     45     (1,68)                1.36956871E-02
     46     (1,69)                1.36963559E-02
     47     (1,70)                1.36968910E-02
     48     (1,71)                5.48050888E-02
     49     (1,72)                5.48243525E-02
     50     (1,73)                5.47859589E-02
     51     (1,74)                5.47852900E-02
     52     (1,75)                5.47859589E-02
     53     (1,76)                5.47859589E-02
     54     (1,77)                5.47862264E-02
     55     (1,78)                5.47860926E-02
     56     (1,79)                5.47855575E-02
     57     (1,80)                5.48246200E-02
     58     (1,81)                5.48282320E-02
     59     (1,82)                5.47887681E-02
     60     (1,83)                5.47864940E-02
     61     (1,86)                5.47856913E-02
     62     (1,87)                5.48240849E-02
     63     (1,88)                5.48244863E-02
     64     (1,89)                5.47855575E-02
     65     (1,90)                5.47856913E-02
     66     (1,91)                5.47898384E-02
     67     (1,92)                5.47899721E-02
     68     (1,93)                5.47954569E-02
     69     (1,94)                5.48044199E-02
     70     (1,95)                1.36968910E-02
     71     (1,96)                1.36968910E-02
     72     (1,97)                1.36963559E-02
     73     (1,98)                1.36962222E-02
     74     (1,99)                1.36962222E-02
     75     (1,100)               1.36964897E-02
     76     (1,101)               1.36967573E-02
     77     (1,102)               1.36959546E-02
     78     (1,103)               5.48056239E-02
     79     (1,104)               5.48246200E-02
     80     (1,105)               5.47855575E-02
     81     (1,106)               5.47859589E-02
     82     (1,107)               5.47860926E-02
     83     (1,108)               5.47862264E-02
     84     (1,109)               5.47863602E-02
     85     (1,110)               5.47859589E-02
     86     (1,111)               5.47897046E-02
     87     (1,112)               5.48282320E-02
     88     (1,113)               5.48240849E-02
     89     (1,114)               5.47854238E-02
     90     (1,115)               5.47856913E-02
     91     (1,118)               5.47855575E-02
     92     (1,119)               5.47855575E-02
     93     (1,120)               5.47858251E-02
     94     (1,121)               5.48239512E-02
     95     (1,122)               5.48242187E-02
     96     (1,123)               5.47899721E-02
     97     (1,124)               5.47891695E-02
     98     (1,125)               5.47856913E-02
     99     (1,126)               5.47858251E-02
    100     (1,127)               5.47858251E-02
    101     (1,128)               5.48053563E-02
    102     (1,129)               1.36968910E-02
    103     (1,130)               1.36960884E-02
    104     (1,131)               1.36970248E-02
    105     (1,132)               1.36963559E-02
    106     (1,133)               1.36967573E-02
    107     (1,134)               1.36986301E-02
    108     (1,135)               1.36984963E-02
    109     (1,136)               1.36966235E-02
    110     (1,137)               5.48049550E-02
    111     (1,138)               5.48250214E-02
    112     (1,139)               5.47856913E-02
    113     (1,140)               5.47860926E-02
    114     (1,141)               5.47859589E-02
    115     (1,142)               5.47859589E-02
    116     (1,143)               5.47894370E-02
    117     (1,144)               5.47903735E-02
    118     (1,145)               5.47855575E-02
    119     (1,146)               5.48243525E-02
    120     (1,147)               5.48242187E-02
    121     (1,148)               5.47863602E-02
    122     (1,149)               5.47859589E-02
    123     (1,152)               5.47862264E-02
    124     (1,153)               5.47860926E-02
    125     (1,154)               5.47851562E-02
    126     (1,155)               5.47863602E-02
    127     (1,156)               5.47851562E-02
    128     (1,157)               5.48286333E-02
    129     (1,158)               5.48283657E-02
    130     (1,159)               5.47858251E-02
    131     (1,160)               5.47855575E-02
    132     (1,161)               5.47862264E-02
    133     (1,162)               5.47859589E-02
    134     (1,163)               5.47860926E-02
    135     (1,164)               5.48070954E-02
    136     (1,165)               1.36972924E-02
    137     (1,166)               1.36971586E-02
    138     (1,167)               1.36964897E-02
    139     (1,168)               1.36970248E-02
    140     (1,169)               1.36967573E-02
    141     (1,170)               1.36962222E-02
    142     (1,171)               1.36962222E-02
    143     (1,172)               1.36963559E-02
    144     (1,173)               5.48058914E-02
    145     (1,174)               5.48238174E-02
    146     (1,175)               5.47860926E-02
    147     (1,176)               5.47858251E-02
    148     (1,177)               5.47894370E-02
    149     (1,178)               5.47901059E-02
    150     (1,179)               5.47863602E-02
    151     (1,180)               5.47858251E-02
    152     (1,181)               5.47855575E-02
    153     (1,182)               5.48250214E-02
    154     (1,183)               5.48246200E-02
    155     (1,184)               5.47855575E-02
    156     (1,185)               5.47855575E-02
    157     (1,188)               5.47860926E-02
    158     (1,189)               5.47860926E-02
    159     (1,190)               5.47863602E-02
    160     (1,191)               5.47859589E-02
    161     (1,192)               5.47852900E-02
    162     (1,193)               5.47897046E-02
    163     (1,194)               5.47897046E-02
    164     (1,195)               5.48244863E-02
    165     (1,196)               5.48244863E-02
    166     (1,197)               5.47855575E-02
    167     (1,198)               5.47851562E-02
    168     (1,199)               5.47858251E-02
    169     (1,200)               5.47863602E-02
    170     (1,201)               5.47860926E-02
    171     (1,202)               5.48048212E-02
    172     (1,203)               1.36963559E-02
    173     (1,204)               1.36960884E-02
    174     (1,205)               1.36964897E-02
    175     (1,206)               1.36960884E-02
    176     (1,207)               1.36960884E-02
    177     (1,208)               1.36967573E-02
    178     (1,209)               1.36967573E-02
    179     (1,210)               1.36967573E-02
    180     (1,211)               5.48045537E-02
    181     (1,212)               5.48244863E-02
    182     (1,213)               5.47894370E-02
    183     (1,214)               5.47891695E-02
    184     (1,215)               5.47863602E-02
    185     (1,216)               5.47858251E-02
    186     (1,217)               5.47859589E-02
    187     (1,218)               5.47860926E-02
    188     (1,219)               5.47862264E-02
    189     (1,220)               5.48246200E-02
    190     (1,221)               5.48239512E-02
    191     (1,222)               5.47862264E-02
    192     (1,223)               5.47859589E-02
    193     (1,225)               5.47854238E-02
    194     (1,226)               5.48242187E-02
    195     (1,227)               5.48251551E-02
    196     (1,228)               5.47856913E-02
    197     (1,229)               5.47860926E-02
    198     (1,230)               5.47862264E-02
    199     (1,231)               5.47894370E-02
    200     (1,232)               5.47897046E-02
    201     (1,233)               5.47860926E-02
    202     (1,234)               5.47858251E-02
    203     (1,235)               5.48244863E-02
    204     (1,236)               5.48243525E-02
    205     (1,237)               5.47862264E-02
    206     (1,238)               5.47855575E-02
    207     (1,239)               5.47856913E-02
    208     (1,240)               5.47859589E-02
    209     (1,241)               5.47856913E-02
    210     (1,242)               5.48058914E-02
    211     (1,243)               1.36970248E-02
    212     (1,244)               1.36963559E-02
    213     (1,245)               1.36963559E-02
    214     (1,246)               1.36968910E-02
    215     (1,247)               1.36964897E-02
    216     (1,248)               1.36964897E-02
    217     (1,249)               1.36963559E-02
    218     (1,250)               1.36968910E-02
    219     (1,251)               5.48081656E-02
    220     (1,252)               5.48272955E-02
    221     (1,253)               5.47939854E-02
    222     (1,254)               5.47858251E-02
    223     (1,255)               5.47856913E-02
    224     (1,256)               5.47859589E-02
    225     (1,257)               5.47859589E-02
    226     (1,258)               5.47862264E-02
    227     (1,259)               5.47858251E-02
    228     (1,260)               5.48243525E-02
    229     (1,261)               5.48244863E-02
    230     (1,262)               5.47855575E-02
    231     (1,263)               5.47852900E-02
    232     (1,266)               5.47856913E-02
    233     (1,267)               5.47878317E-02
    234     (1,268)               1.36966235E-02
    235     (1,269)               1.37160210E-02
    236     (1,270)               1.36962222E-02
    237     (1,271)               1.36964897E-02
    238     (1,272)               5.48239512E-02
    239     (1,273)               5.47863602E-02
    240     (1,274)               5.47902397E-02
    241     (1,275)               5.47895708E-02
    242     (1,276)               5.47854238E-02
    243     (1,277)               5.47854238E-02
    244     (1,278)               5.47855575E-02
    245     (1,279)               5.47854238E-02
    246     (1,280)               5.48246200E-02
    247     (1,281)               5.48243525E-02
    248     (1,282)               5.47855575E-02
    249     (1,283)               5.47854238E-02
    250     (1,284)               5.47858251E-02
    251     (1,285)               5.47858251E-02
    252     (1,286)               5.47852900E-02
    253     (1,287)               5.48049550E-02
    254     (1,288)               1.36960884E-02
    255     (1,289)               1.36963559E-02
    256     (1,290)               1.36968910E-02
    257     (1,291)               1.36978275E-02
    258     (1,292)               1.36990315E-02
    259     (1,293)               1.36966235E-02
    260     (1,294)               1.36960884E-02
    261     (1,295)               1.36963559E-02
    262     (1,296)               1.36964897E-02
    263     (1,297)               1.37160210E-02
    264     (1,298)               1.36966235E-02
    265     (1,299)               1.36964897E-02
    266     (1,300)               1.36962222E-02
    267     (1,301)               1.36963559E-02
    268     (1,302)               1.37157534E-02
    269     (1,303)               1.36960884E-02
    270     (1,304)               5.48048212E-02
    271     (1,305)               5.47946543E-02
    272     (1,306)               5.47858251E-02
    273     (1,307)               5.47854238E-02
    274     (1,308)               5.47855575E-02
    275     (1,309)               5.47862264E-02
    276     (1,310)               5.47859589E-02
    277     (1,311)               5.48239512E-02
    278     (1,312)               5.48248876E-02
    279     (1,313)               5.47856913E-02
    280     (1,314)               5.47859589E-02
    281     (1,352)               5.47965271E-02
    282     (1,353)               1.36967573E-02
    283     (1,354)               1.37015732E-02
    284     (1,355)               1.36963559E-02
    285     (1,356)               1.36962222E-02
    286     (1,357)               3.41957406E-03
    287     (1,358)               3.42853703E-03
    288     (1,359)               3.42037671E-03
    289     (1,360)               3.41944028E-03
    290     (1,361)               1.36956871E-02
    291     (1,362)               1.37007705E-02
    292     (1,363)               1.36966235E-02
    293     (1,364)               5.48140517E-02
    294     (1,365)               5.48283657E-02
    295     (1,366)               5.47898384E-02
    296     (1,367)               5.47858251E-02
    297     (1,368)               5.47860926E-02
    298     (1,369)               5.47858251E-02
    299     (1,370)               5.47858251E-02
    300     (1,371)               5.47859589E-02
    301     (1,372)               5.47852900E-02
    302     (1,373)               5.48250214E-02
    303     (1,374)               5.48239512E-02
    304     (1,375)               5.47862264E-02
    305     (1,376)               5.47858251E-02
    306     (1,377)               5.47862264E-02
    307     (1,378)               5.47855575E-02
    308     (1,379)               5.47891695E-02
    309     (1,380)               5.47989351E-02
    310     (1,381)               5.47959920E-02
    311     (1,382)               5.48056239E-02
    312     (1,383)               1.36970248E-02
    313     (1,384)               1.37158872E-02
    314     (1,385)               1.36959546E-02
    315     (1,386)               1.36960884E-02
    316     (1,387)               1.36960884E-02
    317     (1,388)               1.36952857E-02
    318     (1,389)               1.37161547E-02
    319     (1,390)               1.36967573E-02
    320     (1,391)               1.36960884E-02
    321     (1,392)               1.36967573E-02
    322     (1,393)               1.36954195E-02
    323     (1,394)               1.36966235E-02
    324     (1,395)               5.47966609E-02
    325     (1,396)               5.47859589E-02
    326     (1,397)               5.47858251E-02
    327     (1,398)               5.47851562E-02
    328     (1,399)               5.47860926E-02
    329     (1,400)               5.47858251E-02
    330     (1,401)               5.48242187E-02
    331     (1,402)               5.48242187E-02
    332     (1,403)               5.47903735E-02
    333     (1,404)               5.47886344E-02
    334     (1,405)               5.47858251E-02
    335     (1,406)               5.47856913E-02
    336     (1,407)               5.47858251E-02
    337     (1,408)               5.47856913E-02
    338     (1,409)               5.47856913E-02
    339     (1,410)               5.48242187E-02
    340     (1,411)               5.48242187E-02
    341     (1,412)               5.47854238E-02
    342     (1,413)               5.47858251E-02
    343     (1,414)               5.47855575E-02
    344     (1,415)               5.47858251E-02
    345     (1,416)               5.47859589E-02
    346     (1,417)               5.47859589E-02
    347     (1,418)               5.47894370E-02
    348     (1,419)               5.47899721E-02
    349     (1,420)               5.48240849E-02
    350     (1,421)               5.48242187E-02
    351     (1,422)               5.47856913E-02
    352     (1,423)               5.47860926E-02
    353     (1,424)               5.47852900E-02
    354     (1,425)               5.47858251E-02
    355     (1,426)               5.47856913E-02
    356     (1,427)               5.47854238E-02
    357     (1,428)               5.47859589E-02
    358     (1,429)               5.48246200E-02
    359     (1,430)               5.48248876E-02
    360     (1,431)               5.47859589E-02
    361     (1,432)               5.47894370E-02
    362     (1,433)               5.47890357E-02
    363     (1,434)               5.47854238E-02
    364     (1,435)               5.47855575E-02
    365     (1,436)               5.47854238E-02
    366     (1,437)               5.47856913E-02
    367     (1,438)               5.47855575E-02
    368     (1,439)               5.48244863E-02
    369     (1,442)               5.47858251E-02
    370     (1,443)               5.47949218E-02
    371     (1,444)               5.47945205E-02
    372     (1,445)               5.47895708E-02
    373     (1,446)               5.48280982E-02
    374     (1,447)               5.48242187E-02
    375     (1,448)               5.47856913E-02
    376     (1,449)               5.47855575E-02
    377     (1,450)               5.47854238E-02
    378     (1,451)               5.47852900E-02
    379     (1,452)               5.47859589E-02
    380     (1,453)               5.47866277E-02
    381     (1,454)               5.47855575E-02
    382     (1,455)               5.48246200E-02
    383     (1,456)               5.48244863E-02
    384     (1,457)               5.47855575E-02
    385     (1,458)               5.47860926E-02
    386     (1,459)               5.47895708E-02
    387     (1,460)               5.47895708E-02
    388     (1,461)               5.47856913E-02
    389     (1,462)               5.47859589E-02
    390     (1,463)               5.47855575E-02
    391     (1,464)               5.47969285E-02
    392     (1,465)               5.48246200E-02
    393     (1,466)               1.36967573E-02
    394     (1,467)               1.36962222E-02
    395     (1,468)               1.37157534E-02
    396     (1,469)               1.36968910E-02
    397     (1,470)               5.48073630E-02
    398     (1,471)               5.47858251E-02
    399     (1,472)               5.47859589E-02
    400     (1,473)               5.47858251E-02
    401     (1,474)               5.47852900E-02
    402     (1,475)               5.47848887E-02
    403     (1,476)               5.47859589E-02
    404     (1,477)               5.48279644E-02
    405     (1,478)               5.48289009E-02
    406     (1,479)               5.47862264E-02
    407     (1,480)               5.47852900E-02
    408     (1,481)               5.47852900E-02
    409     (1,482)               5.47858251E-02
    410     (1,483)               5.47854238E-02
    411     (1,484)               5.47852900E-02
    412     (1,485)               5.47856913E-02
    413     (1,486)               5.48242187E-02
    414     (1,487)               5.48244863E-02
    415     (1,488)               5.47854238E-02
    416     (1,489)               5.47859589E-02
    417     (1,490)               5.47855575E-02
    418     (1,491)               5.47856913E-02
    419     (1,492)               5.47895708E-02
    420     (1,493)               5.47894370E-02
    421     (1,494)               5.47860926E-02
    422     (1,495)               5.47859589E-02
    423     (1,496)               5.48246200E-02
    424     (1,497)               5.48247538E-02
    425     (1,498)               5.47860926E-02
    426     (1,499)               5.47862264E-02
    427     (1,500)               5.47854238E-02
    428     (1,501)               5.47856913E-02
    429     (1,502)               5.47858251E-02
    430     (1,503)               5.47863602E-02
    431     (1,504)               5.47858251E-02
    432     (1,505)               5.48243525E-02
    433     (1,506)               5.48274293E-02
    434     (1,507)               5.47897046E-02
    435     (1,508)               5.47859589E-02
    436     (1,509)               5.47856913E-02
    437     (1,510)               5.47858251E-02
    438     (1,511)               5.47862264E-02
    439     (1,512)               5.47855575E-02
    440     (1,513)               5.47856913E-02
    441     (1,514)               5.47858251E-02
    442     (1,515)               5.48239512E-02
    443     (1,518)               5.47856913E-02
    444     (1,519)               5.47858251E-02
    445     (1,520)               5.47897046E-02
    446     (1,521)               5.47897046E-02
    447     (1,522)               5.47855575E-02
    448     (1,523)               5.48246200E-02
    449     (1,524)               5.48246200E-02
    450     (1,525)               5.47860926E-02
    451     (1,526)               5.47858251E-02
    452     (1,527)               5.47855575E-02
    453     (1,528)               5.47862264E-02
    454     (1,529)               5.47866277E-02
    455     (1,530)               5.47856913E-02
    456     (1,531)               5.47858251E-02
    457     (1,532)               5.48244863E-02
    458     (1,533)               5.48244863E-02
    459     (1,534)               5.47897046E-02
    460     (1,535)               5.47894370E-02
    461     (1,536)               5.47866277E-02
    462     (1,537)               5.47859589E-02
    463     (1,538)               5.47859589E-02
    464     (1,539)               5.47856913E-02
    465     (1,540)               5.47856913E-02
    466     (1,541)               5.47943867E-02
    467     (1,542)               1.36963559E-02
    468     (1,543)               1.37178938E-02
    469     (1,544)               1.36983626E-02
    470     (1,545)               1.36962222E-02
    471     (1,546)               1.36962222E-02
    472     (1,547)               1.36966235E-02
    473     (1,548)               1.37154859E-02
    474     (1,549)               1.36964897E-02
    475     (1,550)               5.48052226E-02
    476     (1,551)               5.47859589E-02
    477     (1,552)               5.47858251E-02
    478     (1,553)               5.47858251E-02
    479     (1,554)               5.47856913E-02
    480     (1,555)               5.47898384E-02
    481     (1,556)               5.47894370E-02
    482     (1,557)               5.48240849E-02
    483     (1,558)               5.48252889E-02
    484     (1,559)               5.47856913E-02
    485     (1,560)               5.47859589E-02
    486     (1,561)               5.47854238E-02
    487     (1,562)               5.47862264E-02
    488     (1,563)               5.47860926E-02
    489     (1,564)               5.47859589E-02
    490     (1,565)               5.47860926E-02
    491     (1,566)               5.48243525E-02
    492     (1,567)               5.48248876E-02
    493     (1,568)               5.47858251E-02
    494     (1,569)               5.47851562E-02
    495     (1,570)               5.47895708E-02
    496     (1,571)               5.47901059E-02
    497     (1,572)               5.47858251E-02
    498     (1,573)               5.47856913E-02
    499     (1,574)               5.47856913E-02
    500     (1,575)               5.47858251E-02
    501     (1,576)               5.48244863E-02
    502     (1,577)               5.48240849E-02
    503     (1,578)               5.47854238E-02
    504     (1,579)               5.47858251E-02
    505     (1,580)               5.47858251E-02
    506     (1,581)               5.47858251E-02
    507     (1,582)               5.47854238E-02
    508     (1,583)               5.47855575E-02
    509     (1,584)               5.47891695E-02
    510     (1,585)               5.48286333E-02
    511     (1,586)               5.48238174E-02
    512     (1,587)               5.47858251E-02
    513     (1,588)               5.47856913E-02
    514     (1,589)               5.47863602E-02
    515     (1,590)               5.47860926E-02
    516     (1,591)               5.47858251E-02
    517     (1,592)               5.47856913E-02
    518     (1,593)               5.47856913E-02
    519     (1,594)               5.47854238E-02
    520     (1,595)               5.48246200E-02
    521     (1,598)               5.47859589E-02
    522     (1,599)               5.47894370E-02
    523     (1,600)               5.47895708E-02
    524     (1,601)               5.47860926E-02
    525     (1,602)               5.47858251E-02
    526     (1,603)               5.47859589E-02
    527     (1,604)               5.48242187E-02
    528     (1,605)               5.48248876E-02
    529     (1,606)               5.47854238E-02
    530     (1,607)               5.47860926E-02
    531     (1,608)               5.47852900E-02
    532     (1,609)               5.47856913E-02
    533     (1,610)               5.47856913E-02
    534     (1,611)               5.47855575E-02
    535     (1,612)               5.47859589E-02
    536     (1,613)               5.48282320E-02
    537     (1,614)               5.48280982E-02
    538     (1,615)               5.47852900E-02
    539     (1,616)               5.47863602E-02
    540     (1,617)               5.47862264E-02
    541     (1,618)               5.47864940E-02
    542     (1,619)               5.47859589E-02
    543     (1,620)               5.47856913E-02
    544     (1,621)               5.47863602E-02
    545     (1,622)               5.48060252E-02
    546     (1,623)               1.36960884E-02
    547     (1,624)               1.37157534E-02
    548     (1,625)               1.36964897E-02
    549     (1,626)               1.36962222E-02
    550     (1,627)               1.36966235E-02
    551     (1,628)               1.36963559E-02
    552     (1,629)               1.37160210E-02
    553     (1,630)               1.36967573E-02
    554     (1,631)               5.48062928E-02
    555     (1,632)               5.47855575E-02
    556     (1,633)               5.47860926E-02
    557     (1,634)               5.47891695E-02
    558     (1,635)               5.47894370E-02
    559     (1,636)               5.47854238E-02
    560     (1,637)               5.47855575E-02
    561     (1,638)               5.48240849E-02
    562     (1,639)               5.48244863E-02
    563     (1,640)               5.47864940E-02
    564     (1,641)               5.47855575E-02
    565     (1,642)               5.47859589E-02
    566     (1,643)               5.47854238E-02
    567     (1,644)               5.47854238E-02
    568     (1,645)               5.47858251E-02
    569     (1,646)               5.47856913E-02
    570     (1,647)               5.48243525E-02
    571     (1,648)               5.48242187E-02
    572     (1,649)               5.47889019E-02
    573     (1,650)               5.47891695E-02
    574     (1,651)               5.47855575E-02
    575     (1,652)               5.47855575E-02
    576     (1,653)               5.47860926E-02
    577     (1,654)               5.47862264E-02
    578     (1,655)               5.47856913E-02
    579     (1,656)               5.47856913E-02
    580     (1,657)               5.48240849E-02
    581     (1,658)               5.48242187E-02
    582     (1,659)               5.47859589E-02
    583     (1,660)               5.47856913E-02
    584     (1,661)               5.47858251E-02
    585     (1,662)               5.47862264E-02
    586     (1,663)               5.47895708E-02
    587     (1,664)               5.47898384E-02
    588     (1,665)               5.47855575E-02
    589     (1,666)               5.48248876E-02
    590     (1,667)               5.48244863E-02
    591     (1,668)               5.47854238E-02
    592     (1,669)               5.47854238E-02
    593     (1,670)               5.47855575E-02
    594     (1,671)               5.47856913E-02
    595     (1,672)               5.47859589E-02
    596     (1,673)               5.47855575E-02
    597     (1,674)               5.47858251E-02
    598     (1,675)               5.47858251E-02
    599     (1,676)               5.48240849E-02
    600     (1,679)               5.47902397E-02
    601     (1,680)               5.47895708E-02
    602     (1,681)               5.47859589E-02
    603     (1,682)               5.47858251E-02
    604     (1,683)               5.47855575E-02
    605     (1,684)               5.47862264E-02
    606     (1,685)               5.47858251E-02
    607     (1,686)               5.48250214E-02
    608     (1,687)               5.48242187E-02
    609     (1,688)               5.47860926E-02
    610     (1,689)               5.47856913E-02
    611     (1,690)               5.47860926E-02
    612     (1,691)               5.47852900E-02
    613     (1,692)               5.47858251E-02
    614     (1,693)               5.47905072E-02
    615     (1,694)               5.47897046E-02
    616     (1,695)               5.48239512E-02
    617     (1,696)               5.48242187E-02
    618     (1,697)               5.47859589E-02
    619     (1,698)               5.47859589E-02
    620     (1,699)               5.47855575E-02
    621     (1,700)               5.47862264E-02
    622     (1,701)               5.47860926E-02
    623     (1,702)               5.47855575E-02
    624     (1,703)               5.47854238E-02
    625     (1,704)               5.48042861E-02
    626     (1,705)               1.36962222E-02
    627     (1,706)               1.37160210E-02
    628     (1,707)               1.36967573E-02
    629     (1,708)               1.36963559E-02
    630     (1,709)               1.36968910E-02
    631     (1,710)               1.36960884E-02
    632     (1,711)               1.37161547E-02
    633     (1,712)               1.36968910E-02
    634     (1,713)               5.48061590E-02
    635     (1,714)               5.47897046E-02
    636     (1,715)               5.47897046E-02
    637     (1,716)               5.47858251E-02
    638     (1,717)               5.47852900E-02
    639     (1,718)               5.47854238E-02
    640     (1,719)               5.47859589E-02
    641     (1,720)               5.48242187E-02
    642     (1,721)               5.48251551E-02
    643     (1,722)               5.47856913E-02
    644     (1,723)               5.47859589E-02
    645     (1,724)               5.47856913E-02
    646     (1,725)               5.47855575E-02
    647     (1,726)               5.47858251E-02
    648     (1,727)               5.47852900E-02
    649     (1,728)               5.47863602E-02
    650     (1,729)               5.48279644E-02
    651     (1,730)               5.48279644E-02
    652     (1,731)               5.47858251E-02
    653     (1,732)               5.47856913E-02
    654     (1,733)               5.47858251E-02
    655     (1,734)               5.47856913E-02
    656     (1,735)               5.47855575E-02
    657     (1,736)               5.47852900E-02
    658     (1,737)               5.47852900E-02
    659     (1,738)               5.47863602E-02
    660     (1,739)               5.48250214E-02
    661     (1,740)               5.48246200E-02
    662     (1,741)               5.47855575E-02
    663     (1,742)               5.47860926E-02
    664     (1,743)               5.47897046E-02
    665     (1,744)               5.47887681E-02
    666     (1,745)               5.47856913E-02
    667     (1,746)               5.47858251E-02
    668     (1,747)               5.47850224E-02
    669     (1,748)               5.48243525E-02
    670     (1,749)               5.48246200E-02
    671     (1,750)               5.47858251E-02
    672     (1,751)               5.47855575E-02
    673     (1,752)               5.47858251E-02
    674     (1,753)               5.47851562E-02
    675     (1,754)               5.47855575E-02
    676     (1,755)               5.47859589E-02
    677     (1,756)               5.47856913E-02
    678     (1,757)               5.47854238E-02
    679     (1,758)               5.48280982E-02
    680     (1,761)               5.48286333E-02
    681     (1,762)               5.47852900E-02
    682     (1,763)               5.47856913E-02
    683     (1,764)               5.47854238E-02
    684     (1,765)               5.47859589E-02
    685     (1,766)               5.47859589E-02
    686     (1,767)               5.47855575E-02
    687     (1,768)               5.47859589E-02
    688     (1,769)               5.48244863E-02
    689     (1,770)               5.48243525E-02
    690     (1,771)               5.47860926E-02
    691     (1,772)               5.47859589E-02
    692     (1,773)               5.47856913E-02
    693     (1,774)               5.47894370E-02
    694     (1,775)               5.47897046E-02
    695     (1,776)               5.47854238E-02
    696     (1,777)               5.47855575E-02
    697     (1,778)               5.48242187E-02
    698     (1,779)               5.48243525E-02
    699     (1,780)               5.47856913E-02
    700     (1,781)               5.47856913E-02
    701     (1,782)               5.47854238E-02
    702     (1,783)               5.47856913E-02
    703     (1,784)               5.47854238E-02
    704     (1,785)               5.47860926E-02
    705     (1,786)               5.47854238E-02
    706     (1,787)               5.48049550E-02
    707     (1,788)               1.36964897E-02
    708     (1,789)               1.37161547E-02
    709     (1,790)               1.36964897E-02
    710     (1,791)               1.36970248E-02
    711     (1,792)               1.36963559E-02
    712     (1,793)               1.36962222E-02
    713     (1,794)               1.37153521E-02
    714     (1,795)               1.36982288E-02
    715     (1,796)               5.48088345E-02
    716     (1,797)               5.47859589E-02
    717     (1,798)               5.47859589E-02
    718     (1,799)               5.47858251E-02
    719     (1,800)               5.47856913E-02
    720     (1,801)               5.47859589E-02
    721     (1,802)               5.47860926E-02
    722     (1,803)               5.48244863E-02
    723     (1,804)               5.48242187E-02
    724     (1,805)               5.47858251E-02
    725     (1,806)               5.47856913E-02
    726     (1,807)               5.47855575E-02
    727     (1,808)               5.47862264E-02
    728     (1,809)               5.47854238E-02
    729     (1,810)               5.47897046E-02
    730     (1,811)               5.47893032E-02
    731     (1,812)               5.48246200E-02
    732     (1,813)               5.48242187E-02
    733     (1,814)               5.47859589E-02
    734     (1,815)               5.47858251E-02
    735     (1,816)               5.47855575E-02
    736     (1,817)               5.47855575E-02
    737     (1,818)               5.47856913E-02
    738     (1,819)               5.47862264E-02
    739     (1,820)               5.47859589E-02
    740     (1,821)               5.47859589E-02
    741     (1,822)               5.48246200E-02
    742     (1,823)               5.48242187E-02
    743     (1,824)               5.47894370E-02
    744     (1,825)               5.47899721E-02
    745     (1,826)               5.47866277E-02
    746     (1,827)               5.47860926E-02
    747     (1,828)               5.47859589E-02
    748     (1,829)               5.47859589E-02
    749     (1,830)               5.47858251E-02
    750     (1,831)               5.48244863E-02
    751     (1,832)               5.48246200E-02
    752     (1,833)               5.47863602E-02
    753     (1,834)               5.47859589E-02
    754     (1,835)               5.47859589E-02
    755     (1,836)               5.47855575E-02
    756     (1,837)               5.47852900E-02
    757     (1,838)               5.47858251E-02
    758     (1,839)               5.47893032E-02
    759     (1,840)               5.47794038E-02
    760     (1,841)               5.48246200E-02
    761     (1,844)               5.48243525E-02
    762     (1,845)               5.48239512E-02
    763     (1,846)               5.47855575E-02
    764     (1,847)               5.47854238E-02
    765     (1,848)               5.47858251E-02
    766     (1,849)               5.47855575E-02
    767     (1,850)               5.47862264E-02
    768     (1,851)               5.47855575E-02
    769     (1,852)               5.47859589E-02
    770     (1,853)               5.48246200E-02
    771     (1,854)               5.48244863E-02
    772     (1,855)               5.47860926E-02
    773     (1,856)               5.47899721E-02
    774     (1,857)               5.47898384E-02
    775     (1,858)               5.47859589E-02
    776     (1,859)               5.47859589E-02
    777     (1,860)               5.47855575E-02
    778     (1,861)               5.47859589E-02
    779     (1,862)               5.48240849E-02
    780     (1,863)               5.48248876E-02
    781     (1,864)               5.47860926E-02
    782     (1,865)               5.47859589E-02
    783     (1,866)               5.47855575E-02
    784     (1,867)               5.47856913E-02
    785     (1,868)               5.47852900E-02
    786     (1,869)               5.47851562E-02
    787     (1,870)               5.47859589E-02
    788     (1,871)               5.48081656E-02
    789     (1,872)               1.36982288E-02
    790     (1,873)               1.37164223E-02
    791     (1,874)               1.36968910E-02
    792     (1,875)               1.36962222E-02
    793     (1,876)               1.36966235E-02
    794     (1,877)               1.36964897E-02
    795     (1,878)               1.37154859E-02
    796     (1,879)               1.36955533E-02
    797     (1,880)               5.48040186E-02
    798     (1,881)               5.47860926E-02
    799     (1,882)               5.47941192E-02
    800     (1,883)               5.47858251E-02
    801     (1,884)               5.47860926E-02
    802     (1,885)               5.47848887E-02
    803     (1,886)               5.47859589E-02
    804     (1,887)               5.48250214E-02
    805     (1,888)               5.48246200E-02
    806     (1,889)               5.47851562E-02
    807     (1,890)               5.47862264E-02
    808     (1,891)               5.47856913E-02
    809     (1,892)               5.47893032E-02
    810     (1,893)               5.47893032E-02
    811     (1,894)               5.47860926E-02
    812     (1,895)               5.47859589E-02
    813     (1,896)               5.48244863E-02
    814     (1,897)               5.48246200E-02
    815     (1,898)               5.47860926E-02
    816     (1,899)               5.47856913E-02
    817     (1,900)               5.47860926E-02
    818     (1,901)               5.47854238E-02
    819     (1,902)               5.47862264E-02
    820     (1,903)               5.47858251E-02
    821     (1,904)               5.47859589E-02
    822     (1,905)               5.47851562E-02
    823     (1,906)               5.48279644E-02
    824     (1,907)               5.48282320E-02
    825     (1,908)               5.47860926E-02
    826     (1,909)               5.47859589E-02
    827     (1,910)               5.47856913E-02
    828     (1,911)               5.47855575E-02
    829     (1,912)               5.47860926E-02
    830     (1,913)               5.47863602E-02
    831     (1,914)               5.47852900E-02
    832     (1,915)               5.48250214E-02
    833     (1,916)               5.48243525E-02
    834     (1,917)               5.47855575E-02
    835     (1,918)               5.47863602E-02
    836     (1,919)               5.47859589E-02
    837     (1,920)               5.47856913E-02
    838     (1,921)               5.47894370E-02
    839     (1,922)               5.47875642E-02
    840     (1,923)               1.36967573E-02
    841     (1,924)               1.36962222E-02
    842     (1,925)               1.36958208E-02
    843     (1,926)               1.36967573E-02
    844     (1,927)               5.47768621E-02
    845     (1,930)               5.47860926E-02
    846     (1,931)               5.48236836E-02
    847     (1,932)               5.48247538E-02
    848     (1,933)               5.47855575E-02
    849     (1,934)               5.47856913E-02
    850     (1,935)               5.47859589E-02
    851     (1,936)               5.47864940E-02
    852     (1,937)               5.47856913E-02
    853     (1,938)               5.47858251E-02
    854     (1,939)               5.47856913E-02
    855     (1,940)               5.48247538E-02
    856     (1,941)               5.48284995E-02
    857     (1,942)               5.47893032E-02
    858     (1,943)               5.47855575E-02
    859     (1,944)               5.47860926E-02
    860     (1,945)               5.47859589E-02
    861     (1,946)               5.47852900E-02
    862     (1,947)               5.47854238E-02
    863     (1,948)               5.47855575E-02
    864     (1,949)               5.48242187E-02
    865     (1,950)               5.48242187E-02
    866     (1,951)               5.47856913E-02
    867     (1,952)               5.47855575E-02
    868     (1,953)               5.47862264E-02
    869     (1,954)               5.47854238E-02
    870     (1,955)               5.47854238E-02
    871     (1,956)               5.47893032E-02
    872     (1,957)               5.47893032E-02
    873     (1,958)               5.48049550E-02
    874     (1,959)               1.36968910E-02
    875     (1,960)               1.37154859E-02
    876     (1,961)               1.37009043E-02
    877     (1,962)               3.41837007E-03
    878     (1,963)               3.42880458E-03
    879     (1,964)               3.41930650E-03
    880     (1,965)               3.41997538E-03
    881     (1,966)               1.36960884E-02
    882     (1,967)               1.36966235E-02
    883     (1,968)               1.37158872E-02
    884     (1,969)               1.36960884E-02
    885     (1,970)               5.47860926E-02
    886     (1,971)               1.36962222E-02
    887     (1,972)               1.36958208E-02
    888     (1,973)               1.36964897E-02
    889     (1,974)               1.36968910E-02
    890     (1,975)               5.48046875E-02
    891     (1,976)               5.47862264E-02
    892     (1,977)               5.47859589E-02
    893     (1,978)               5.47855575E-02
    894     (1,979)               5.47856913E-02
    895     (1,980)               5.48243525E-02
    896     (1,981)               5.48246200E-02
    897     (1,982)               5.47858251E-02
    898     (1,983)               5.47895708E-02
    899     (1,984)               5.47898384E-02
    900     (1,985)               5.47854238E-02
    901     (1,986)               5.47856913E-02
    902     (1,987)               5.47860926E-02
    903     (1,988)               5.47855575E-02
    904     (1,989)               5.48247538E-02
    905     (1,990)               5.48236836E-02
    906     (1,991)               5.47854238E-02
    907     (1,992)               5.47860926E-02
    908     (1,993)               5.47854238E-02
    909     (1,994)               5.47858251E-02
    910     (1,995)               5.47851562E-02
    911     (1,996)               5.47862264E-02
    912     (1,997)               5.47897046E-02
    913     (1,998)               5.47898384E-02
    914     (1,999)               5.48250214E-02
    915     (1,1000)              5.48240849E-02
    916     (1,1001)              5.47859589E-02
    917     (1,1002)              5.47855575E-02
    918     (1,1003)              5.47854238E-02
    919     (1,1004)              5.47860926E-02
    920     (1,1005)              5.47862264E-02
    921     (1,1006)              5.47862264E-02
    922     (1,1007)              5.47863602E-02
    923     (1,1008)              5.48244863E-02
    924     (1,1009)              5.48238174E-02
    925     (1,1010)              5.47858251E-02
    926     (1,1011)              5.47856913E-02
    927     (1,1012)              5.47895708E-02
    928     (1,1013)              5.47982662E-02
    929     (1,1014)              1.36958208E-02
    930     (1,1015)              1.36904698E-02
    931     (1,1016)              1.36966235E-02
    932     (1,1017)              1.36972924E-02
    933     (1,1018)              3.42813570E-03
    934     (1,1019)              3.42920590E-03
    935     (1,1020)              3.41903895E-03
    936     (1,1021)              3.42920590E-03
    937     (1,1022)              1.36959546E-02
    938     (1,1023)              1.36918076E-02
    939     (1,1024)              1.36959546E-02
    940     (1,1025)              5.47767283E-02
    941     (1,1028)              5.47854238E-02
    942     (1,1029)              5.47856913E-02
    943     (1,1030)              5.48240849E-02
    944     (1,1031)              5.48246200E-02
    945     (1,1032)              5.47856913E-02
    946     (1,1033)              5.47855575E-02
    947     (1,1034)              5.47852900E-02
    948     (1,1035)              5.47854238E-02
    949     (1,1036)              5.47858251E-02
    950     (1,1037)              5.47855575E-02
    951     (1,1038)              5.47901059E-02
    952     (1,1039)              5.48290346E-02
    953     (1,1040)              5.48243525E-02
    954     (1,1041)              5.47860926E-02
    955     (1,1042)              5.47863602E-02
    956     (1,1043)              5.47858251E-02
    957     (1,1044)              5.47860926E-02
    958     (1,1045)              5.47854238E-02
    959     (1,1046)              5.47858251E-02
    960     (1,1047)              5.47859589E-02
    961     (1,1048)              5.48243525E-02
    962     (1,1049)              5.48240849E-02
    963     (1,1050)              5.47858251E-02
    964     (1,1051)              5.47852900E-02
    965     (1,1052)              5.47855575E-02
    966     (1,1053)              5.47897046E-02
    967     (1,1054)              5.47899721E-02
    968     (1,1055)              5.47855575E-02
    969     (1,1056)              5.47946543E-02
    970     (1,1057)              1.36964897E-02
    971     (1,1058)              1.37013056E-02
    972     (1,1059)              1.36962222E-02
    973     (1,1060)              1.36962222E-02
    974     (1,1061)              1.36962222E-02
    975     (1,1062)              1.37161547E-02
    976     (1,1063)              1.36972924E-02
    977     (1,1064)              1.36962222E-02
    978     (1,1065)              5.48145869E-02
    979     (1,1066)              1.36914062E-02
    980     (1,1067)              3.42947346E-03
    981     (1,1068)              3.42933968E-03
    982     (1,1069)              3.41957406E-03
    983     (1,1070)              3.42867080E-03
    984     (1,1071)              1.36964897E-02
    985     (1,1072)              1.36906036E-02
    986     (1,1073)              1.36960884E-02
    987     (1,1074)              1.36983626E-02
    988     (1,1075)              1.36979612E-02
    989     (1,1076)              1.36962222E-02
    990     (1,1077)              5.48049550E-02
    991     (1,1078)              5.47856913E-02
    992     (1,1079)              5.47862264E-02
    993     (1,1080)              5.47859589E-02
    994     (1,1081)              5.47859589E-02
    995     (1,1082)              5.48252889E-02
    996     (1,1083)              5.48279644E-02
    997     (1,1084)              5.47894370E-02
    998     (1,1085)              5.47856913E-02
    999     (1,1086)              5.47855575E-02
    1000    (1,1087)              5.47855575E-02
    1001    (1,1088)              5.47852900E-02
    1002    (1,1089)              5.47854238E-02
    1003    (1,1090)              5.47859589E-02
    1004    (1,1091)              5.48247538E-02
    1005    (1,1092)              5.48239512E-02
    1006    (1,1093)              5.47854238E-02
    1007    (1,1094)              5.47854238E-02
    1008    (1,1095)              5.47859589E-02
    1009    (1,1096)              5.47856913E-02
    1010    (1,1097)              5.47898384E-02
    1011    (1,1098)              5.47897046E-02
    1012    (1,1099)              5.47859589E-02
    1013    (1,1100)              5.47854238E-02
    1014    (1,1101)              5.48240849E-02
    1015    (1,1102)              5.48242187E-02
    1016    (1,1103)              5.47859589E-02
    1017    (1,1104)              5.47856913E-02
    1018    (1,1105)              5.47970622E-02
    1019    (1,1106)              5.47854238E-02
    1020    (1,1107)              5.47852900E-02
    1021    (1,1108)              5.47858251E-02
    1022    (1,1109)              5.47775310E-02
    1023    (1,1110)              5.48153895E-02
    1024    (1,1111)              5.48248876E-02
    1025    (1,1112)              5.47889019E-02
    1026    (1,1113)              5.47893032E-02
    1027    (1,1114)              5.47862264E-02
    1028    (1,1115)              5.47959920E-02
    1029    (1,1116)              5.47959920E-02
    1030    (1,1117)              5.47855575E-02
    1031    (1,1120)              5.47858251E-02
    1032    (1,1121)              5.47855575E-02
    1033    (1,1122)              5.47860926E-02
    1034    (1,1123)              5.48246200E-02
    1035    (1,1124)              5.48246200E-02
    1036    (1,1125)              5.47858251E-02
    1037    (1,1126)              5.47859589E-02
    1038    (1,1127)              5.47854238E-02
    1039    (1,1128)              5.47856913E-02
    1040    (1,1129)              5.47894370E-02
    1041    (1,1130)              5.47895708E-02
    1042    (1,1131)              5.47860926E-02
    1043    (1,1132)              5.48239512E-02
    1044    (1,1133)              5.48234160E-02
    1045    (1,1134)              5.47863602E-02
    1046    (1,1135)              5.47854238E-02
    1047    (1,1136)              5.47862264E-02
    1048    (1,1137)              5.47855575E-02
    1049    (1,1138)              5.47860926E-02
    1050    (1,1139)              5.47854238E-02
    1051    (1,1140)              5.47862264E-02
    1052    (1,1141)              5.48242187E-02
    1053    (1,1142)              5.48246200E-02
    1054    (1,1143)              5.47860926E-02
    1055    (1,1144)              5.47897046E-02
    1056    (1,1145)              5.47898384E-02
    1057    (1,1146)              5.47858251E-02
    1058    (1,1147)              5.47858251E-02
    1059    (1,1148)              5.47856913E-02
    1060    (1,1149)              5.48054901E-02
    1061    (1,1150)              1.36967573E-02
    1062    (1,1151)              1.36964897E-02
    1063    (1,1152)              1.36967573E-02
    1064    (1,1153)              1.36966235E-02
    1065    (1,1154)              5.48040186E-02
    1066    (1,1155)              1.36915400E-02
    1067    (1,1156)              3.43000856E-03
    1068    (1,1157)              3.43014233E-03
    1069    (1,1158)              3.41944028E-03
    1070    (1,1159)              3.42947346E-03
    1071    (1,1160)              1.37181614E-02
    1072    (1,1161)              3.41984161E-03
    1073    (1,1162)              3.41863763E-03
    1074    (1,1163)              3.42760060E-03
    1075    (1,1164)              3.41837007E-03
    1076    (1,1165)              1.36964897E-02
    1077    (1,1166)              1.36960884E-02
    1078    (1,1167)              1.37061216E-02
    1079    (1,1168)              1.36964897E-02
    1080    (1,1169)              1.36964897E-02
    1081    (1,1170)              1.36970248E-02
    1082    (1,1171)              1.37015732E-02
    1083    (1,1172)              1.36956871E-02
    1084    (1,1173)              5.48046875E-02
    1085    (1,1174)              5.47860926E-02
    1086    (1,1175)              5.47859589E-02
    1087    (1,1176)              5.47862264E-02
    1088    (1,1177)              5.47894370E-02
    1089    (1,1178)              5.48278306E-02
    1090    (1,1179)              5.48246200E-02
    1091    (1,1180)              5.47856913E-02
    1092    (1,1181)              5.47862264E-02
    1093    (1,1182)              5.47860926E-02
    1094    (1,1183)              5.47858251E-02
    1095    (1,1184)              5.47858251E-02
    1096    (1,1185)              5.47855575E-02
    1097    (1,1186)              5.47854238E-02
    1098    (1,1187)              5.48243525E-02
    1099    (1,1188)              5.48243525E-02
    1100    (1,1189)              5.47858251E-02
    1101    (1,1190)              5.47963934E-02
    1102    (1,1191)              5.47894370E-02
    1103    (1,1192)              5.47899721E-02
    1104    (1,1193)              5.47858251E-02
    1105    (1,1194)              5.47860926E-02
    1106    (1,1195)              5.47859589E-02
    1107    (1,1196)              5.47862264E-02
    1108    (1,1197)              5.48244863E-02
    1109    (1,1198)              5.48248876E-02
    1110    (1,1199)              5.47775310E-02
    1111    (1,1200)              1.36963559E-02
    1112    (1,1201)              1.36966235E-02
    1113    (1,1202)              1.36963559E-02
    1114    (1,1203)              1.36962222E-02
    1115    (1,1204)              5.48046875E-02
    1116    (1,1205)              5.47855575E-02
    1117    (1,1206)              5.47961258E-02
    1118    (1,1207)              1.36967573E-02
    1119    (1,1208)              1.36959546E-02
    1120    (1,1209)              1.36912725E-02
    1121    (1,1210)              3.42947346E-03
    1122    (1,1211)              3.42907213E-03
    1123    (1,1212)              3.41984161E-03
    1124    (1,1213)              3.42840325E-03
    1125    (1,1214)              1.36960884E-02
    1126    (1,1215)              1.36967573E-02
    1127    (1,1216)              1.36964897E-02
    1128    (1,1217)              1.36960884E-02
    1129    (1,1218)              5.48171286E-02
    1130    (1,1219)              5.48280982E-02
    1131    (1,1220)              5.47856913E-02
    1132    (1,1221)              5.47860926E-02
    1133    (1,1222)              5.47856913E-02
    1134    (1,1223)              5.47856913E-02
    1135    (1,1224)              5.47854238E-02
    1136    (1,1227)              5.47859589E-02
    1137    (1,1228)              5.47851562E-02
    1138    (1,1229)              5.47854238E-02
    1139    (1,1230)              5.47859589E-02
    1140    (1,1231)              5.48247538E-02
    1141    (1,1232)              5.48239512E-02
    1142    (1,1233)              5.47862264E-02
    1143    (1,1234)              5.47859589E-02
    1144    (1,1235)              5.47890357E-02
    1145    (1,1236)              5.47890357E-02
    1146    (1,1237)              5.47856913E-02
    1147    (1,1238)              5.47855575E-02
    1148    (1,1239)              5.47838184E-02
    1149    (1,1240)              1.36963559E-02
    1150    (1,1241)              1.37152183E-02
    1151    (1,1242)              1.36970248E-02
    1152    (1,1243)              1.36962222E-02
    1153    (1,1244)              5.48248876E-02
    1154    (1,1245)              5.47852900E-02
    1155    (1,1246)              5.47860926E-02
    1156    (1,1247)              5.47862264E-02
    1157    (1,1248)              5.47854238E-02
    1158    (1,1249)              5.47858251E-02
    1159    (1,1250)              5.47858251E-02
    1160    (1,1251)              5.47863602E-02
    1161    (1,1252)              5.48247538E-02
    1162    (1,1253)              5.48286333E-02
    1163    (1,1254)              5.47893032E-02
    1164    (1,1255)              5.47855575E-02
    1165    (1,1256)              5.47856913E-02
    1166    (1,1257)              5.47863602E-02
    1167    (1,1258)              5.47859589E-02
    1168    (1,1259)              5.47943867E-02
    1169    (1,1260)              1.36958208E-02
    1170    (1,1261)              1.36967573E-02
    1171    (1,1262)              1.36963559E-02
    1172    (1,1263)              1.36968910E-02
    1173    (1,1264)              1.36963559E-02
    1174    (1,1265)              1.36984963E-02
    1175    (1,1266)              1.36986301E-02
    1176    (1,1267)              1.36964897E-02
    1177    (1,1268)              1.36964897E-02
    1178    (1,1269)              1.37154859E-02
    1179    (1,1270)              1.36962222E-02
    1180    (1,1271)              1.36966235E-02
    1181    (1,1272)              3.41944028E-03
    1182    (1,1273)              3.41917273E-03
    1183    (1,1274)              3.42773437E-03
    1184    (1,1275)              3.41903895E-03
    1185    (1,1276)              1.37017070E-02
    1186    (1,1277)              1.37162885E-02
    1187    (1,1278)              1.36960884E-02
    1188    (1,1279)              3.41970783E-03
    1189    (1,1280)              3.41890518E-03
    1190    (1,1281)              3.42813570E-03
    1191    (1,1282)              3.41863763E-03
    1192    (1,1283)              1.37017070E-02
    1193    (1,1284)              1.36978275E-02
    1194    (1,1285)              1.36963559E-02
    1195    (1,1286)              1.36966235E-02
    1196    (1,1287)              1.36966235E-02
    1197    (1,1288)              1.37017070E-02
    1198    (1,1289)              1.36963559E-02
    1199    (1,1290)              5.47943867E-02
    1200    (1,1291)              5.47859589E-02
    1201    (1,1292)              5.47894370E-02
    1202    (1,1293)              5.47897046E-02
    1203    (1,1294)              5.47855575E-02
    1204    (1,1295)              5.48252889E-02
    1205    (1,1296)              5.48246200E-02
    1206    (1,1297)              5.47858251E-02
    1207    (1,1298)              5.47866277E-02
    1208    (1,1299)              5.47855575E-02
    1209    (1,1300)              5.47854238E-02
    1210    (1,1301)              5.47859589E-02
    1211    (1,1302)              5.47856913E-02
    1212    (1,1303)              5.47862264E-02
    1213    (1,1304)              5.48243525E-02
    1214    (1,1305)              5.48167273E-02
    1215    (1,1306)              1.36963559E-02
    1216    (1,1307)              1.36963559E-02
    1217    (1,1308)              1.37013056E-02
    1218    (1,1309)              1.36982288E-02
    1219    (1,1310)              5.48072292E-02
    1220    (1,1311)              5.47856913E-02
    1221    (1,1312)              5.47855575E-02
    1222    (1,1313)              5.47860926E-02
    1223    (1,1314)              5.47856913E-02
    1224    (1,1315)              5.47860926E-02
    1225    (1,1316)              5.47860926E-02
    1226    (1,1317)              5.48246200E-02
    1227    (1,1318)              5.48161922E-02
    1228    (1,1319)              1.36911387E-02
    1229    (1,1320)              3.42853703E-03
    1230    (1,1321)              3.42987478E-03
    1231    (1,1322)              3.41984161E-03
    1232    (1,1323)              3.42933968E-03
    1233    (1,1324)              1.36960884E-02
    1234    (1,1325)              1.36916738E-02
    1235    (1,1326)              1.36963559E-02
    1236    (1,1327)              1.36967573E-02
    1237    (1,1328)              1.36959546E-02
    1238    (1,1329)              1.36964897E-02
    1239    (1,1330)              5.48044199E-02
    1240    (1,1331)              5.48072292E-02
    1241    (1,1332)              1.36962222E-02
    1242    (1,1333)              1.36860552E-02
    1243    (1,1334)              1.36960884E-02
    1244    (1,1335)              1.37017070E-02
    1245    (1,1336)              3.42947346E-03
    1246    (1,1337)              3.42920590E-03
    1247    (1,1338)              3.41970783E-03
    1248    (1,1339)              3.42826947E-03
    1249    (1,1340)              1.36962222E-02
    1250    (1,1341)              1.36915400E-02
    1251    (1,1342)              1.36988977E-02
    1252    (1,1343)              5.47806078E-02
    1253    (1,1344)              5.48247538E-02
    1254    (1,1345)              5.48244863E-02
    1255    (1,1346)              5.47851562E-02
    1256    (1,1347)              5.47854238E-02
    1257    (1,1348)              5.47860926E-02
    1258    (1,1349)              5.47858251E-02
    1259    (1,1352)              5.47855575E-02
    1260    (1,1353)              5.47855575E-02
    1261    (1,1354)              5.47850224E-02
    1262    (1,1355)              5.47859589E-02
    1263    (1,1356)              5.47856913E-02
    1264    (1,1357)              5.48248876E-02
    1265    (1,1358)              5.48248876E-02
    1266    (1,1359)              5.47902397E-02
    1267    (1,1360)              5.47901059E-02
    1268    (1,1361)              5.47860926E-02
    1269    (1,1362)              5.47860926E-02
    1270    (1,1363)              5.47938516E-02
    1271    (1,1364)              1.36964897E-02
    1272    (1,1365)              1.37025096E-02
    1273    (1,1366)              1.36960884E-02
    1274    (1,1367)              1.36964897E-02
    1275    (1,1368)              3.41863763E-03
    1276    (1,1369)              3.42893835E-03
    1277    (1,1370)              3.41930650E-03
    1278    (1,1371)              3.41997538E-03
    1279    (1,1372)              1.36963559E-02
    1280    (1,1373)              1.37009043E-02
    1281    (1,1374)              1.36967573E-02
    1282    (1,1375)              5.48159246E-02
    1283    (1,1376)              5.48244863E-02
    1284    (1,1377)              5.47860926E-02
    1285    (1,1378)              5.47859589E-02
    1286    (1,1379)              5.47863602E-02
    1287    (1,1380)              5.47858251E-02
    1288    (1,1381)              5.47862264E-02
    1289    (1,1382)              5.47856913E-02
    1290    (1,1383)              5.47906410E-02
    1291    (1,1384)              5.48275631E-02
    1292    (1,1385)              5.48240849E-02
    1293    (1,1386)              5.47863602E-02
    1294    (1,1387)              5.47856913E-02
    1295    (1,1388)              5.47860926E-02
    1296    (1,1389)              5.47860926E-02
    1297    (1,1390)              5.47860926E-02
    1298    (1,1391)              5.48069616E-02
    1299    (1,1392)              1.36956871E-02
    1300    (1,1393)              1.36970248E-02
    1301    (1,1394)              1.36962222E-02
    1302    (1,1395)              1.36962222E-02
    1303    (1,1396)              5.47942529E-02
    1304    (1,1397)              1.36962222E-02
    1305    (1,1398)              3.42867080E-03
    1306    (1,1399)              3.42867080E-03
    1307    (1,1400)              3.42947346E-03
    1308    (1,1401)              3.42974101E-03
    1309    (1,1402)              1.36956871E-02
    1310    (1,1403)              1.36919413E-02
    1311    (1,1404)              1.36967573E-02
    1312    (1,1405)              1.36968910E-02
    1313    (1,1406)              1.37152183E-02
    1314    (1,1407)              1.36968910E-02
    1315    (1,1408)              3.41970783E-03
    1316    (1,1409)              3.41997538E-03
    1317    (1,1410)              3.42933968E-03
    1318    (1,1411)              3.41863763E-03
    1319    (1,1412)              1.37003692E-02
    1320    (1,1413)              1.36963559E-02
    1321    (1,1414)              1.36963559E-02
    1322    (1,1415)              5.47943867E-02
    1323    (1,1416)              5.47902397E-02
    1324    (1,1417)              5.47899721E-02
    1325    (1,1418)              5.47863602E-02
    1326    (1,1419)              5.47854238E-02
    1327    (1,1420)              5.47862264E-02
    1328    (1,1421)              5.48242187E-02
    1329    (1,1422)              5.48246200E-02
    1330    (1,1423)              5.47864940E-02
    1331    (1,1424)              5.47860926E-02
    1332    (1,1425)              5.47856913E-02
    1333    (1,1426)              5.47855575E-02
    1334    (1,1427)              5.47855575E-02
    1335    (1,1428)              5.47855575E-02
    1336    (1,1429)              5.47957245E-02
    1337    (1,1430)              1.36960884E-02
    1338    (1,1431)              1.37158872E-02
    1339    (1,1432)              1.36960884E-02
    1340    (1,1433)              1.36984963E-02
    1341    (1,1434)              3.41984161E-03
    1342    (1,1435)              3.41970783E-03
    1343    (1,1436)              3.42893835E-03
    1344    (1,1437)              3.41984161E-03
    1345    (1,1438)              1.37007705E-02
    1346    (1,1439)              1.37164223E-02
    1347    (1,1440)              1.36916738E-02
    1348    (1,1441)              1.36963559E-02
    1349    (1,1442)              1.36967573E-02
    1350    (1,1443)              3.42947346E-03
    1351    (1,1444)              3.42867080E-03
    1352    (1,1445)              3.41903895E-03
    1353    (1,1446)              3.42867080E-03
    1354    (1,1447)              1.36968910E-02
    1355    (1,1448)              5.47963934E-02
    1356    (1,1449)              5.47862264E-02
    1357    (1,1450)              5.47859589E-02
    1358    (1,1451)              5.47858251E-02
    1359    (1,1452)              5.47860926E-02
    1360    (1,1453)              5.47858251E-02
    1361    (1,1454)              5.47862264E-02
    1362    (1,1455)              5.48164597E-02
    1363    (1,1456)              5.48156571E-02
    1364    (1,1457)              5.47769959E-02
    1365    (1,1458)              1.36967573E-02
    1366    (1,1459)              1.36915400E-02
    1367    (1,1460)              1.37013056E-02
    1368    (1,1461)              3.42974101E-03
    1369    (1,1462)              3.41957406E-03
    1370    (1,1463)              3.42893835E-03
    1371    (1,1464)              3.42840325E-03
    1372    (1,1465)              1.36963559E-02
    1373    (1,1466)              1.36966235E-02
    1374    (1,1467)              1.36908711E-02
    1375    (1,1468)              1.36960884E-02
    1376    (1,1469)              1.37158872E-02
    1377    (1,1470)              3.41863763E-03
    1378    (1,1471)              3.41850385E-03
    1379    (1,1472)              3.42853703E-03
    1380    (1,1473)              3.41970783E-03
    1381    (1,1474)              1.36967573E-02
    1382    (1,1475)              1.37174925E-02
    1383    (1,1476)              1.37033123E-02
    1384    (1,1477)              1.36963559E-02
    1385    (1,1478)              1.36966235E-02
    1386    (1,1479)              1.36964897E-02
    1387    (1,1480)              5.47670965E-02
    1388    (1,1481)              5.47751230E-02
    1389    (1,1482)              5.48247538E-02
    1390    (1,1483)              5.48239512E-02
    1391    (1,1484)              5.47856913E-02
    1392    (1,1485)              5.47852900E-02
    1393    (1,1486)              5.47863602E-02
    1394    (1,1488)              5.47866277E-02
    1395    (1,1489)              5.47859589E-02
    1396    (1,1490)              5.47863602E-02
    1397    (1,1491)              5.47860926E-02
    1398    (1,1492)              5.47855575E-02
    1399    (1,1493)              5.47863602E-02
    1400    (1,1494)              5.48287671E-02
    1401    (1,1495)              5.48282320E-02
    1402    (1,1496)              5.47858251E-02
    1403    (1,1497)              5.47855575E-02
    1404    (1,1498)              5.47856913E-02
    1405    (1,1499)              5.47856913E-02
    1406    (1,1500)              5.47959920E-02
    1407    (1,1501)              5.47965271E-02
    1408    (1,1502)              5.47859589E-02
    1409    (1,1503)              5.48243525E-02
    1410    (1,1504)              5.48250214E-02
    1411    (1,1505)              5.47858251E-02
    1412    (1,1506)              5.47852900E-02
    1413    (1,1507)              5.47860926E-02
    1414    (1,1508)              5.47859589E-02
    1415    (1,1509)              5.47893032E-02
    1416    (1,1510)              5.47898384E-02
    1417    (1,1511)              5.47858251E-02
    1418    (1,1512)              5.48246200E-02
    1419    (1,1513)              5.48239512E-02
    1420    (1,1514)              5.47856913E-02
    1421    (1,1515)              5.47851562E-02
    1422    (1,1516)              5.47854238E-02
    1423    (1,1517)              5.47855575E-02
    1424    (1,1518)              5.48062928E-02
    1425    (1,1519)              1.36968910E-02
    1426    (1,1520)              1.36964897E-02
    1427    (1,1521)              1.36962222E-02
    1428    (1,1522)              1.36966235E-02
    1429    (1,1523)              5.47863602E-02
    1430    (1,1524)              1.36962222E-02
    1431    (1,1525)              3.42840325E-03
    1432    (1,1526)              3.41890518E-03
    1433    (1,1527)              3.42800192E-03
    1434    (1,1528)              3.42960723E-03
    1435    (1,1529)              1.36962222E-02
    1436    (1,1530)              1.36963559E-02
    1437    (1,1531)              1.36912725E-02
    1438    (1,1532)              1.37153521E-02
    1439    (1,1533)              1.36963559E-02
    1440    (1,1534)              1.36964897E-02
    1441    (1,1535)              5.48141855E-02
    1442    (1,1536)              5.47894370E-02
    1443    (1,1537)              5.47901059E-02
    1444    (1,1538)              5.47859589E-02
    1445    (1,1539)              5.47862264E-02
    1446    (1,1540)              5.47859589E-02
    1447    (1,1541)              5.47860926E-02
    1448    (1,1542)              5.47755244E-02
    1449    (1,1543)              5.48136504E-02
    1450    (1,1544)              5.48255565E-02
    1451    (1,1545)              5.47858251E-02
    1452    (1,1546)              5.47858251E-02
    1453    (1,1547)              5.47858251E-02
    1454    (1,1548)              5.47854238E-02
    1455    (1,1549)              5.47856913E-02
    1456    (1,1550)              5.47897046E-02
    1457    (1,1551)              5.47990689E-02
    1458    (1,1552)              5.48235498E-02
    1459    (1,1553)              1.36927440E-02
    1460    (1,1554)              1.36962222E-02
    1461    (1,1555)              1.37157534E-02
    1462    (1,1556)              1.36963559E-02
    1463    (1,1557)              5.47967947E-02
    1464    (1,1558)              5.47858251E-02
    1465    (1,1559)              5.47859589E-02
    1466    (1,1560)              5.47855575E-02
    1467    (1,1561)              5.47856913E-02
    1468    (1,1562)              5.47854238E-02
    1469    (1,1563)              5.47963934E-02
    1470    (1,1564)              1.36958208E-02
    1471    (1,1565)              1.36972924E-02
    1472    (1,1566)              1.37007705E-02
    1473    (1,1567)              3.41957406E-03
    1474    (1,1568)              3.42853703E-03
    1475    (1,1569)              3.41863763E-03
    1476    (1,1570)              3.41903895E-03
    1477    (1,1571)              1.36963559E-02
    1478    (1,1572)              1.37162885E-02
    1479    (1,1573)              1.36970248E-02
    1480    (1,1574)              1.36964897E-02
    1481    (1,1575)              1.36967573E-02
    1482    (1,1576)              1.36967573E-02
    1483    (1,1577)              1.37165561E-02
    1484    (1,1578)              1.36927440E-02
    1485    (1,1579)              3.41997538E-03
    1486    (1,1580)              3.41970783E-03
    1487    (1,1581)              3.42933968E-03
    1488    (1,1582)              3.41890518E-03
    1489    (1,1583)              1.37058540E-02
    1490    (1,1584)              3.42867080E-03
    1491    (1,1585)              3.42826947E-03
    1492    (1,1586)              3.41917273E-03
    1493    (1,1587)              3.42960723E-03
    1494    (1,1588)              3.41970783E-03
    1495    (1,1589)              3.41917273E-03
    1496    (1,1590)              3.42907213E-03
    1497    (1,1591)              3.41917273E-03
    1498    (1,1592)              1.36968910E-02
    1499    (1,1593)              1.36964897E-02
    1500    (1,1594)              3.42867080E-03
    1501    (1,1595)              3.42786815E-03
    1502    (1,1596)              3.41877140E-03
    1503    (1,1597)              3.42960723E-03
    1504    (1,1598)              1.36986301E-02
    1505    (1,1599)              1.36984963E-02
    1506    (1,1600)              1.36962222E-02
    1507    (1,1601)              1.36908711E-02
    1508    (1,1602)              1.36958208E-02
    1509    (1,1603)              5.48160584E-02
    1510    (1,1604)              1.36960884E-02
    1511    (1,1605)              1.36959546E-02
    1512    (1,1606)              1.36920751E-02
    1513    (1,1607)              3.42813570E-03
    1514    (1,1608)              3.42947346E-03
    1515    (1,1609)              3.41997538E-03
    1516    (1,1610)              3.42933968E-03
    1517    (1,1611)              1.36976937E-02
    1518    (1,1612)              1.36962222E-02
    1519    (1,1613)              1.36962222E-02
    1520    (1,1614)              1.36963559E-02
    1521    (1,1615)              5.47777985E-02
    1522    (1,1616)              5.48244863E-02
    1523    (1,1617)              5.48243525E-02
    1524    (1,1618)              5.47859589E-02
    1525    (1,1619)              5.47856913E-02
    1526    (1,1622)              5.47858251E-02
    1527    (1,1623)              5.47863602E-02
    1528    (1,1624)              5.47862264E-02
    1529    (1,1625)              5.47897046E-02
    1530    (1,1626)              5.47899721E-02
    1531    (1,1627)              5.48242187E-02
    1532    (1,1628)              5.48243525E-02
    1533    (1,1629)              5.47855575E-02
    1534    (1,1630)              5.47854238E-02
    1535    (1,1631)              5.47858251E-02
    1536    (1,1632)              5.47858251E-02
    1537    (1,1633)              5.47855575E-02
    1538    (1,1634)              5.47858251E-02
    1539    (1,1635)              5.47859589E-02
    1540    (1,1636)              5.48244863E-02
    1541    (1,1637)              5.48247538E-02
    1542    (1,1638)              5.47859589E-02
    1543    (1,1639)              5.47862264E-02
    1544    (1,1640)              5.47899721E-02
    1545    (1,1641)              5.47887681E-02
    1546    (1,1642)              5.47860926E-02
    1547    (1,1643)              5.47858251E-02
    1548    (1,1644)              5.47855575E-02
    1549    (1,1645)              5.48246200E-02
    1550    (1,1646)              5.48246200E-02
    1551    (1,1647)              5.47860926E-02
    1552    (1,1648)              5.47860926E-02
    1553    (1,1649)              5.47773972E-02
    1554    (1,1650)              1.36964897E-02
    1555    (1,1651)              1.36966235E-02
    1556    (1,1652)              1.36960884E-02
    1557    (1,1653)              1.36963559E-02
    1558    (1,1654)              1.37160210E-02
    1559    (1,1655)              1.36967573E-02
    1560    (1,1656)              1.36967573E-02
    1561    (1,1657)              1.37153521E-02
    1562    (1,1658)              5.47661601E-02
    1563    (1,1659)              5.48064265E-02
    1564    (1,1660)              1.36960884E-02
    1565    (1,1661)              1.36966235E-02
    1566    (1,1662)              1.36962222E-02
    1567    (1,1663)              1.36967573E-02
    1568    (1,1664)              1.36923427E-02
    1569    (1,1665)              1.37158872E-02
    1570    (1,1666)              3.42880458E-03
    1571    (1,1667)              3.41837007E-03
    1572    (1,1668)              3.42826947E-03
    1573    (1,1669)              3.42960723E-03
    1574    (1,1670)              1.36934129E-02
    1575    (1,1671)              5.48280982E-02
    1576    (1,1672)              5.47858251E-02
    1577    (1,1673)              5.47860926E-02
    1578    (1,1674)              5.47945205E-02
    1579    (1,1675)              5.47862264E-02
    1580    (1,1676)              5.47840860E-02
    1581    (1,1677)              1.36967573E-02
    1582    (1,1678)              1.36967573E-02
    1583    (1,1679)              1.36967573E-02
    1584    (1,1680)              1.36967573E-02
    1585    (1,1681)              1.36959546E-02
    1586    (1,1682)              1.36986301E-02
    1587    (1,1683)              1.36983626E-02
    1588    (1,1684)              1.36967573E-02
    1589    (1,1685)              1.36967573E-02
    1590    (1,1686)              1.37162885E-02
    1591    (1,1687)              1.36962222E-02
    1592    (1,1688)              1.36964897E-02
    1593    (1,1689)              5.48231485E-02
    1594    (1,1690)              5.47858251E-02
    1595    (1,1691)              5.47855575E-02
    1596    (1,1692)              5.47858251E-02
    1597    (1,1693)              5.47858251E-02
    1598    (1,1694)              5.47898384E-02
    1599    (1,1695)              5.47751230E-02
    1600    (1,1696)              5.47747217E-02
    1601    (1,1697)              5.48255565E-02
    1602    (1,1698)              5.48244863E-02
    1603    (1,1699)              5.47859589E-02
    1604    (1,1700)              5.47859589E-02
    1605    (1,1701)              5.47855575E-02
    1606    (1,1702)              5.47856913E-02
    1607    (1,1703)              5.47858251E-02
    1608    (1,1704)              5.47969285E-02
    1609    (1,1705)              1.36963559E-02
    1610    (1,1706)              1.37021083E-02
    1611    (1,1707)              1.36919413E-02
    1612    (1,1708)              3.42880458E-03
    1613    (1,1709)              3.42933968E-03
    1614    (1,1710)              3.41890518E-03
    1615    (1,1711)              3.42880458E-03
    1616    (1,1712)              1.36964897E-02
    1617    (1,1713)              1.36963559E-02
    1618    (1,1714)              1.36952857E-02
    1619    (1,1715)              1.36966235E-02
    1620    (1,1716)              1.36968910E-02
    1621    (1,1717)              1.37160210E-02
    1622    (1,1718)              1.37007705E-02
    1623    (1,1719)              3.41930650E-03
    1624    (1,1720)              3.42974101E-03
    1625    (1,1721)              3.41957406E-03
    1626    (1,1722)              3.41890518E-03
    1627    (1,1723)              3.42024293E-03
    1628    (1,1724)              3.41970783E-03
    1629    (1,1725)              3.42933968E-03
    1630    (1,1726)              3.41890518E-03
    1631    (1,1727)              3.42773437E-03
    1632    (1,1728)              3.42853703E-03
    1633    (1,1729)              3.41877140E-03
    1634    (1,1730)              3.42987478E-03
    1635    (1,1731)              1.37149508E-02
    1636    (1,1732)              1.36885969E-02
    1637    (1,1733)              3.41944028E-03
    1638    (1,1734)              3.42010916E-03
    1639    (1,1735)              3.42907213E-03
    1640    (1,1736)              3.41944028E-03
    1641    (1,1737)              1.37053189E-02
    1642    (1,1738)              3.42907213E-03
    1643    (1,1739)              3.42853703E-03
    1644    (1,1740)              3.41890518E-03
    1645    (1,1741)              3.42786815E-03
    1646    (1,1742)              3.41890518E-03
    1647    (1,1743)              3.41997538E-03
    1648    (1,1744)              3.42960723E-03
    1649    (1,1745)              3.41917273E-03
    1650    (1,1746)              3.42853703E-03
    1651    (1,1747)              3.41903895E-03
    1652    (1,1748)              3.42947346E-03
    1653    (1,1749)              3.43027611E-03
    1654    (1,1750)              1.36907374E-02
    1655    (1,1751)              1.37023758E-02
    1656    (1,1752)              1.36966235E-02
    1657    (1,1753)              5.47852900E-02
    1658    (1,1754)              1.37158872E-02
    1659    (1,1755)              1.36918076E-02
    1660    (1,1756)              1.36971586E-02
    1661    (1,1757)              1.37158872E-02
    1662    (1,1758)              5.47875642E-02
    1663    (1,1759)              5.47855575E-02
    1664    (1,1760)              5.47858251E-02
    1665    (1,1761)              5.48247538E-02
    1666    (1,1762)              5.48244863E-02
    1667    (1,1763)              5.47851562E-02
    1668    (1,1766)              5.47858251E-02
    1669    (1,1767)              5.47902397E-02
    1670    (1,1768)              5.47898384E-02
    1671    (1,1769)              5.47859589E-02
    1672    (1,1770)              5.47860926E-02
    1673    (1,1771)              5.48240849E-02
    1674    (1,1772)              5.48242187E-02
    1675    (1,1773)              5.47854238E-02
    1676    (1,1774)              5.47855575E-02
    1677    (1,1775)              5.47859589E-02
    1678    (1,1776)              5.47855575E-02
    1679    (1,1777)              5.47856913E-02
    1680    (1,1778)              5.47858251E-02
    1681    (1,1779)              5.47859589E-02
    1682    (1,1780)              5.48247538E-02
    1683    (1,1781)              5.48247538E-02
    1684    (1,1782)              5.47901059E-02
    1685    (1,1783)              5.47897046E-02
    1686    (1,1784)              5.47851562E-02
    1687    (1,1785)              5.47854238E-02
    1688    (1,1786)              5.47856913E-02
    1689    (1,1787)              5.47854238E-02
    1690    (1,1788)              5.47856913E-02
    1691    (1,1789)              5.48244863E-02
    1692    (1,1790)              5.48244863E-02
    1693    (1,1791)              5.47859589E-02
    1694    (1,1792)              5.47773972E-02
    1695    (1,1793)              1.36962222E-02
    1696    (1,1794)              1.36967573E-02
    1697    (1,1795)              1.36960884E-02
    1698    (1,1796)              1.36960884E-02
    1699    (1,1797)              1.36966235E-02
    1700    (1,1798)              1.36972924E-02
    1701    (1,1799)              1.36967573E-02
    1702    (1,1800)              1.36964897E-02
    1703    (1,1801)              1.37161547E-02
    1704    (1,1802)              1.36964897E-02
    1705    (1,1803)              1.36966235E-02
    1706    (1,1804)              1.37164223E-02
    1707    (1,1805)              5.47666952E-02
    1708    (1,1806)              5.47979987E-02
    1709    (1,1807)              1.36986301E-02
    1710    (1,1808)              1.36963559E-02
    1711    (1,1809)              1.36968910E-02
    1712    (1,1810)              1.36966235E-02
    1713    (1,1811)              5.48050888E-02
    1714    (1,1812)              5.48234160E-02
    1715    (1,1813)              5.47840860E-02
    1716    (1,1814)              1.36959546E-02
    1717    (1,1815)              1.36962222E-02
    1718    (1,1816)              1.36960884E-02
    1719    (1,1817)              1.36963559E-02
    1720    (1,1818)              5.47939854E-02
    1721    (1,1819)              1.37154859E-02
    1722    (1,1820)              1.36967573E-02
    1723    (1,1821)              1.36968910E-02
    1724    (1,1822)              1.37160210E-02
    1725    (1,1823)              1.36966235E-02
    1726    (1,1824)              1.36983626E-02
    1727    (1,1825)              1.36986301E-02
    1728    (1,1826)              1.36967573E-02
    1729    (1,1827)              1.36962222E-02
    1730    (1,1828)              1.37013056E-02
    1731    (1,1829)              1.36964897E-02
    1732    (1,1830)              1.36962222E-02
    1733    (1,1831)              3.41984161E-03
    1734    (1,1832)              3.42853703E-03
    1735    (1,1833)              3.41903895E-03
    1736    (1,1834)              3.41970783E-03
    1737    (1,1835)              1.36960884E-02
    1738    (1,1836)              1.37023758E-02
    1739    (1,1837)              1.36958208E-02
    1740    (1,1838)              5.48140517E-02
    1741    (1,1839)              5.48240849E-02
    1742    (1,1840)              5.47858251E-02
    1743    (1,1841)              5.47862264E-02
    1744    (1,1842)              5.47893032E-02
    1745    (1,1843)              5.47979987E-02
    1746    (1,1844)              1.36963559E-02
    1747    (1,1845)              1.36963559E-02
    1748    (1,1846)              1.36966235E-02
    1749    (1,1847)              1.36967573E-02
    1750    (1,1848)              1.37017070E-02
    1751    (1,1849)              1.36966235E-02
    1752    (1,1850)              3.41957406E-03
    1753    (1,1851)              3.41863763E-03
    1754    (1,1852)              3.42920590E-03
    1755    (1,1853)              3.41877140E-03
    1756    (1,1854)              1.37021083E-02
    1757    (1,1855)              5.47773972E-02
    1758    (1,1856)              5.48250214E-02
    1759    (1,1857)              5.48243525E-02
    1760    (1,1858)              5.47856913E-02
    1761    (1,1859)              5.47863602E-02
    1762    (1,1860)              5.47860926E-02
    1763    (1,1861)              5.47856913E-02
    1764    (1,1862)              5.47971960E-02
    1765    (1,1863)              1.36964897E-02
    1766    (1,1864)              1.36916738E-02
    1767    (1,1865)              1.36958208E-02
    1768    (1,1866)              1.36966235E-02
    1769    (1,1867)              5.47851562E-02
    1770    (1,1868)              1.36972924E-02
    1771    (1,1869)              3.42760060E-03
    1772    (1,1870)              3.41890518E-03
    1773    (1,1871)              3.42840325E-03
    1774    (1,1872)              3.42920590E-03
    1775    (1,1873)              1.36963559E-02
    1776    (1,1874)              1.36990315E-02
    1777    (1,1875)              1.36934129E-02
    1778    (1,1876)              1.37150845E-02
    1779    (1,1877)              1.37009043E-02
    1780    (1,1878)              3.41823630E-03
    1781    (1,1879)              3.42974101E-03
    1782    (1,1880)              3.41903895E-03
    1783    (1,1881)              3.42010916E-03
    1784    (1,1882)              1.36926102E-02
    1785    (1,1883)              1.36968910E-02
    1786    (1,1884)              1.37154859E-02
    1787    (1,1885)              1.36966235E-02
    1788    (1,1886)              5.47959920E-02
    1789    (1,1887)              5.47855575E-02
    1790    (1,1888)              5.47776648E-02
    1791    (1,1889)              5.47855575E-02
    1792    (1,1890)              5.47859589E-02
    1793    (1,1891)              5.47855575E-02
    1794    (1,1892)              5.47859589E-02
    1795    (1,1893)              5.48238174E-02
    1796    (1,1894)              5.48242187E-02
    1797    (1,1897)              5.47898384E-02
    1798    (1,1898)              5.47858251E-02
    1799    (1,1899)              5.47858251E-02
    1800    (1,1900)              5.47852900E-02
    1801    (1,1901)              5.47856913E-02
    1802    (1,1902)              5.48244863E-02
    1803    (1,1903)              5.48248876E-02
    1804    (1,1904)              5.47855575E-02
    1805    (1,1905)              5.47855575E-02
    1806    (1,1906)              5.47852900E-02
    1807    (1,1907)              5.47855575E-02
    1808    (1,1908)              5.47860926E-02
    1809    (1,1909)              5.47858251E-02
    1810    (1,1910)              5.47863602E-02
    1811    (1,1911)              5.48282320E-02
    1812    (1,1912)              5.48280982E-02
    1813    (1,1913)              5.47860926E-02
    1814    (1,1914)              5.47860926E-02
    1815    (1,1915)              5.47862264E-02
    1816    (1,1916)              5.47859589E-02
    1817    (1,1917)              5.47863602E-02
    1818    (1,1918)              5.47855575E-02
    1819    (1,1919)              5.47858251E-02
    1820    (1,1920)              5.48244863E-02
    1821    (1,1921)              5.48244863E-02
    1822    (1,1922)              5.47858251E-02
    1823    (1,1923)              5.47753906E-02
    1824    (1,1924)              5.47664276E-02
    1825    (1,1925)              1.36966235E-02
    1826    (1,1926)              1.36958208E-02
    1827    (1,1927)              1.36963559E-02
    1828    (1,1928)              1.36963559E-02
    1829    (1,1929)              1.37158872E-02
    1830    (1,1930)              1.36963559E-02
    1831    (1,1931)              1.36962222E-02
    1832    (1,1932)              1.37180276E-02
    1833    (1,1933)              1.36976937E-02
    1834    (1,1934)              1.36966235E-02
    1835    (1,1935)              1.36958208E-02
    1836    (1,1936)              1.36962222E-02
    1837    (1,1937)              1.36966235E-02
    1838    (1,1938)              1.36966235E-02
    1839    (1,1939)              1.36963559E-02
    1840    (1,1940)              1.36962222E-02
    1841    (1,1941)              1.36966235E-02
    1842    (1,1942)              1.36960884E-02
    1843    (1,1943)              1.36963559E-02
    1844    (1,1944)              1.36968910E-02
    1845    (1,1945)              1.36962222E-02
    1846    (1,1946)              1.37152183E-02
    1847    (1,1947)              1.36962222E-02
    1848    (1,1948)              1.36966235E-02
    1849    (1,1949)              1.36960884E-02
    1850    (1,1950)              1.36966235E-02
    1851    (1,1951)              1.37153521E-02
    1852    (1,1952)              1.36962222E-02
    1853    (1,1953)              1.36914062E-02
    1854    (1,1954)              3.42907213E-03
    1855    (1,1955)              3.42933968E-03
    1856    (1,1956)              3.41944028E-03
    1857    (1,1957)              3.42826947E-03
    1858    (1,1958)              1.36966235E-02
    1859    (1,1959)              1.36914062E-02
    1860    (1,1960)              1.36963559E-02
    1861    (1,1961)              1.36967573E-02
    1862    (1,1962)              1.36964897E-02
    1863    (1,1963)              1.36963559E-02
    1864    (1,1964)              1.36962222E-02
    1865    (1,1965)              1.36982288E-02
    1866    (1,1966)              1.36980950E-02
    1867    (1,1967)              1.36962222E-02
    1868    (1,1968)              1.37154859E-02
    1869    (1,1969)              1.36956871E-02
    1870    (1,1970)              1.36968910E-02
    1871    (1,1971)              1.37154859E-02
    1872    (1,1972)              1.36959546E-02
    1873    (1,1973)              1.36964897E-02
    1874    (1,1974)              1.36967573E-02
    1875    (1,1975)              1.36966235E-02
    1876    (1,1976)              1.36962222E-02
    1877    (1,1977)              1.36964897E-02
    1878    (1,1978)              1.36959546E-02
    1879    (1,1979)              1.36966235E-02
    1880    (1,1980)              5.47657587E-02
    1881    (1,1981)              5.48244863E-02
    1882    (1,1982)              5.48242187E-02
    1883    (1,1983)              5.47893032E-02
    1884    (1,1984)              5.47898384E-02
    1885    (1,1985)              5.47855575E-02
    1886    (1,1986)              5.48129815E-02
    1887    (1,1987)              1.36966235E-02
    1888    (1,1988)              1.36966235E-02
    1889    (1,1989)              1.36970248E-02
    1890    (1,1990)              1.36960884E-02
    1891    (1,1991)              5.47763270E-02
    1892    (1,1992)              5.47856913E-02
    1893    (1,1993)              5.48240849E-02
    1894    (1,1994)              5.48244863E-02
    1895    (1,1995)              5.47854238E-02
    1896    (1,1996)              5.47855575E-02
    1897    (1,1997)              5.47855575E-02
    1898    (1,1998)              5.47763270E-02
    1899    (1,1999)              1.37154859E-02
    1900    (1,2000)              1.36955533E-02
    1901    (1,2001)              1.36967573E-02
    1902    (1,2002)              3.42920590E-03
    1903    (1,2003)              3.42933968E-03
    1904    (1,2004)              3.42947346E-03
    1905    (1,2005)              3.42840325E-03
    1906    (1,2006)              1.36966235E-02
    1907    (1,2007)              1.36962222E-02
    1908    (1,2008)              1.36956871E-02
    1909    (1,2009)              1.36983626E-02
    1910    (1,2010)              1.36986301E-02
    1911    (1,2011)              1.36960884E-02
    1912    (1,2012)              1.36918076E-02
    1913    (1,2013)              3.42826947E-03
    1914    (1,2014)              3.42933968E-03
    1915    (1,2015)              3.41970783E-03
    1916    (1,2016)              3.42960723E-03
    1917    (1,2017)              1.36963559E-02
    1918    (1,2018)              1.37017070E-02
    1919    (1,2019)              1.36968910E-02
    1920    (1,2020)              1.36960884E-02
    1921    (1,2021)              1.36964897E-02
    1922    (1,2022)              3.42920590E-03
    1923    (1,2023)              3.42853703E-03
    1924    (1,2024)              3.42840325E-03
    1925    (1,2025)              3.42893835E-03
    1926    (1,2026)              1.36966235E-02
    1927    (1,2027)              1.36972924E-02
    1928    (1,2028)              1.36976937E-02
    1929    (1,2029)              1.36958208E-02
    1930    (1,2030)              1.37158872E-02
    1931    (1,2031)              1.36966235E-02
    1932    (1,2032)              5.47967947E-02
    1933    (1,2033)              5.47863602E-02
    1934    (1,2034)              5.47855575E-02
    1935    (1,2035)              5.47855575E-02
    1936    (1,2036)              5.47856913E-02
    1937    (1,2037)              5.47860926E-02
    1938    (1,2038)              5.47858251E-02
    1939    (1,2039)              5.48244863E-02
    1940    (1,2042)              5.47855575E-02
    1941    (1,2043)              5.47863602E-02
    1942    (1,2044)              5.47860926E-02
    1943    (1,2045)              5.47859589E-02
    1944    (1,2046)              5.47860926E-02
    1945    (1,2047)              5.48246200E-02
    1946    (1,2048)              5.48242187E-02
    1947    (1,2049)              5.47856913E-02
    1948    (1,2050)              5.47864940E-02
    1949    (1,2051)              5.47860926E-02
    1950    (1,2052)              5.47856913E-02
    1951    (1,2053)              5.47856913E-02
    1952    (1,2054)              5.47898384E-02
    1953    (1,2055)              5.47893032E-02
    1954    (1,2056)              5.48244863E-02
    1955    (1,2057)              5.48244863E-02
    1956    (1,2058)              5.47860926E-02
    1957    (1,2059)              5.47856913E-02
    1958    (1,2060)              5.47858251E-02
    1959    (1,2061)              5.47860926E-02
    1960    (1,2062)              5.47856913E-02
    1961    (1,2063)              5.47854238E-02
    1962    (1,2064)              5.47856913E-02
    1963    (1,2065)              5.48244863E-02
    1964    (1,2066)              5.48240849E-02
    1965    (1,2067)              5.47855575E-02
    1966    (1,2068)              5.47856913E-02
    1967    (1,2069)              5.47784674E-02
    1968    (1,2070)              5.47802065E-02
    1969    (1,2071)              5.47959920E-02
    1970    (1,2072)              5.47971960E-02
    1971    (1,2073)              5.47962596E-02
    1972    (1,2074)              5.47962596E-02
    1973    (1,2075)              5.48251551E-02
    1974    (1,2076)              5.48149882E-02
    1975    (1,2077)              5.47775310E-02
    1976    (1,2078)              5.47653574E-02
    1977    (1,2079)              1.36964897E-02
    1978    (1,2080)              1.36964897E-02
    1979    (1,2081)              1.36970248E-02
    1980    (1,2082)              1.36962222E-02
    1981    (1,2083)              1.37153521E-02
    1982    (1,2084)              1.36964897E-02
    1983    (1,2085)              1.36964897E-02
    1984    (1,2086)              1.37157534E-02
    1985    (1,2087)              1.36956871E-02
    1986    (1,2088)              1.36960884E-02
    1987    (1,2089)              1.36964897E-02
    1988    (1,2090)              1.36966235E-02
    1989    (1,2091)              1.36968910E-02
    1990    (1,2092)              1.36968910E-02
    1991    (1,2093)              1.36962222E-02
    1992    (1,2094)              1.36967573E-02
    1993    (1,2095)              5.47745879E-02
    1994    (1,2096)              5.48284995E-02
    1995    (1,2097)              5.48284995E-02
    1996    (1,2098)              5.47858251E-02
    1997    (1,2099)              5.47753906E-02
    1998    (1,2100)              1.36963559E-02
    1999    (1,2101)              1.36919413E-02
    2000    (1,2102)              1.36968910E-02
    2001    (1,2103)              3.42786815E-03
    2002    (1,2104)              3.41930650E-03
    2003    (1,2105)              3.42867080E-03
    2004    (1,2106)              3.42893835E-03
    2005    (1,2107)              1.37156196E-02
    2006    (1,2108)              1.36964897E-02
    2007    (1,2109)              1.36919413E-02
    2008    (1,2110)              1.37157534E-02
    2009    (1,2111)              5.47771297E-02
    2010    (1,2112)              5.47855575E-02
    2011    (1,2113)              5.47859589E-02
    2012    (1,2114)              5.48244863E-02
    2013    (1,2115)              5.48248876E-02
    2014    (1,2116)              5.47858251E-02
    2015    (1,2117)              5.47856913E-02
    2016    (1,2118)              5.47771297E-02
    2017    (1,2119)              1.36960884E-02
    2018    (1,2120)              1.36960884E-02
    2019    (1,2121)              1.36975599E-02
    2020    (1,2122)              1.36986301E-02
    2021    (1,2123)              5.48176637E-02
    2022    (1,2124)              1.36963559E-02
    2023    (1,2125)              1.36911387E-02
    2024    (1,2126)              1.36960884E-02
    2025    (1,2127)              1.36967573E-02
    2026    (1,2128)              5.47875642E-02
    2027    (1,2129)              5.47962596E-02
    2028    (1,2130)              5.48258240E-02
    2029    (1,2131)              5.48247538E-02
    2030    (1,2132)              5.47858251E-02
    2031    (1,2133)              5.47859589E-02
    2032    (1,2134)              5.47862264E-02
    2033    (1,2135)              5.47864940E-02
    2034    (1,2136)              5.47860926E-02
    2035    (1,2137)              5.47860926E-02
    2036    (1,2138)              5.47852900E-02
    2037    (1,2141)              5.47858251E-02
    2038    (1,2142)              5.47862264E-02
    2039    (1,2143)              5.47854238E-02
    2040    (1,2144)              5.47852900E-02
    2041    (1,2145)              5.47859589E-02
    2042    (1,2146)              5.48247538E-02
    2043    (1,2147)              5.48242187E-02
    2044    (1,2148)              5.47855575E-02
    2045    (1,2149)              5.47855575E-02
    2046    (1,2150)              5.47851562E-02
    2047    (1,2151)              5.47894370E-02
    2048    (1,2152)              5.47898384E-02
    2049    (1,2153)              5.47856913E-02
    2050    (1,2154)              5.47856913E-02
    2051    (1,2155)              5.48238174E-02
    2052    (1,2156)              5.48248876E-02
    2053    (1,2157)              5.47858251E-02
    2054    (1,2158)              5.47855575E-02
    2055    (1,2159)              5.47860926E-02
    2056    (1,2160)              5.47859589E-02
    2057    (1,2161)              5.47863602E-02
    2058    (1,2162)              5.47860926E-02
    2059    (1,2163)              5.47858251E-02
    2060    (1,2164)              5.48236836E-02
    2061    (1,2165)              5.48244863E-02
    2062    (1,2166)              5.47886344E-02
    2063    (1,2167)              5.47895708E-02
    2064    (1,2168)              5.47855575E-02
    2065    (1,2169)              5.47862264E-02
    2066    (1,2170)              5.47859589E-02
    2067    (1,2171)              5.47852900E-02
    2068    (1,2172)              5.47854238E-02
    2069    (1,2173)              5.47835509E-02
    2070    (1,2174)              1.36967573E-02
    2071    (1,2175)              1.37181614E-02
    2072    (1,2176)              1.36979612E-02
    2073    (1,2177)              1.36966235E-02
    2074    (1,2178)              5.48228809E-02
    2075    (1,2179)              5.47856913E-02
    2076    (1,2180)              5.47748555E-02
    2077    (1,2181)              5.47777985E-02
    2078    (1,2182)              1.37153521E-02
    2079    (1,2183)              1.36966235E-02
    2080    (1,2184)              1.36966235E-02
    2081    (1,2185)              1.37158872E-02
    2082    (1,2186)              1.36960884E-02
    2083    (1,2187)              1.36963559E-02
    2084    (1,2188)              1.36960884E-02
    2085    (1,2189)              1.36962222E-02
    2086    (1,2190)              5.47790025E-02
    2087    (1,2191)              5.47895708E-02
    2088    (1,2192)              5.48251551E-02
    2089    (1,2193)              5.48242187E-02
    2090    (1,2194)              5.47756581E-02
    2091    (1,2195)              1.36967573E-02
    2092    (1,2196)              1.36962222E-02
    2093    (1,2197)              1.36962222E-02
    2094    (1,2198)              1.36962222E-02
    2095    (1,2199)              5.47962596E-02
    2096    (1,2200)              5.47848887E-02
    2097    (1,2201)              5.47852900E-02
    2098    (1,2202)              5.47856913E-02
    2099    (1,2203)              5.47855575E-02
    2100    (1,2204)              5.48243525E-02
    2101    (1,2205)              5.48243525E-02
    2102    (1,2206)              5.47856913E-02
    2103    (1,2207)              5.47898384E-02
    2104    (1,2208)              5.47788687E-02
    2105    (1,2209)              5.47858251E-02
    2106    (1,2210)              5.47961258E-02
    2107    (1,2211)              5.47860926E-02
    2108    (1,2212)              5.47856913E-02
    2109    (1,2213)              5.47859589E-02
    2110    (1,2214)              5.48246200E-02
    2111    (1,2215)              5.48240849E-02
    2112    (1,2216)              5.47854238E-02
    2113    (1,2217)              5.47858251E-02
    2114    (1,2218)              5.47852900E-02
    2115    (1,2219)              5.47855575E-02
    2116    (1,2220)              5.47855575E-02
    2117    (1,2221)              5.47856913E-02
    2118    (1,2224)              5.47852900E-02
    2119    (1,2225)              5.47852900E-02
    2120    (1,2226)              5.47856913E-02
    2121    (1,2227)              5.47859589E-02
    2122    (1,2228)              5.47855575E-02
    2123    (1,2229)              5.48243525E-02
    2124    (1,2230)              5.48243525E-02
    2125    (1,2231)              5.47856913E-02
    2126    (1,2232)              5.47891695E-02
    2127    (1,2233)              5.47897046E-02
    2128    (1,2234)              5.47858251E-02
    2129    (1,2235)              5.47858251E-02
    2130    (1,2236)              5.47859589E-02
    2131    (1,2237)              5.47858251E-02
    2132    (1,2238)              5.48243525E-02
    2133    (1,2239)              5.48239512E-02
    2134    (1,2240)              5.47859589E-02
    2135    (1,2241)              5.47862264E-02
    2136    (1,2242)              5.47854238E-02
    2137    (1,2243)              5.47852900E-02
    2138    (1,2244)              5.47859589E-02
    2139    (1,2245)              5.47856913E-02
    2140    (1,2246)              5.47859589E-02
    2141    (1,2247)              5.48275631E-02
    2142    (1,2248)              5.48276969E-02
    2143    (1,2249)              5.47858251E-02
    2144    (1,2250)              5.47860926E-02
    2145    (1,2251)              5.47858251E-02
    2146    (1,2252)              5.47854238E-02
    2147    (1,2253)              5.47856913E-02
    2148    (1,2254)              5.47946543E-02
    2149    (1,2255)              1.36967573E-02
    2150    (1,2256)              1.37033123E-02
    2151    (1,2257)              1.36987639E-02
    2152    (1,2258)              1.36964897E-02
    2153    (1,2259)              3.41970783E-03
    2154    (1,2260)              3.42853703E-03
    2155    (1,2261)              3.41863763E-03
    2156    (1,2262)              3.41877140E-03
    2157    (1,2263)              1.36968910E-02
    2158    (1,2264)              1.37013056E-02
    2159    (1,2265)              1.36968910E-02
    2160    (1,2266)              5.48139180E-02
    2161    (1,2267)              5.48246200E-02
    2162    (1,2268)              5.47767283E-02
    2163    (1,2269)              1.36958208E-02
    2164    (1,2270)              1.36959546E-02
    2165    (1,2271)              1.36960884E-02
    2166    (1,2272)              1.36963559E-02
    2167    (1,2273)              1.36963559E-02
    2168    (1,2274)              1.36964897E-02
    2169    (1,2275)              1.36966235E-02
    2170    (1,2276)              1.36964897E-02
    2171    (1,2277)              5.48066941E-02
    2172    (1,2278)              5.47893032E-02
    2173    (1,2279)              5.47854238E-02
    2174    (1,2280)              5.47854238E-02
    2175    (1,2281)              5.48244863E-02
    2176    (1,2282)              5.48247538E-02
    2177    (1,2283)              5.47745879E-02
    2178    (1,2284)              1.36963559E-02
    2179    (1,2285)              1.36986301E-02
    2180    (1,2286)              1.37035798E-02
    2181    (1,2287)              1.36964897E-02
    2182    (1,2288)              5.47950556E-02
    2183    (1,2289)              5.47863602E-02
    2184    (1,2290)              5.47859589E-02
    2185    (1,2291)              5.47860926E-02
    2186    (1,2292)              5.47851562E-02
    2187    (1,2293)              5.48239512E-02
    2188    (1,2294)              5.48282320E-02
    2189    (1,2295)              5.47895708E-02
    2190    (1,2296)              5.47858251E-02
    2191    (1,2297)              5.47858251E-02
    2192    (1,2298)              5.47858251E-02
    2193    (1,2299)              5.47860926E-02
    2194    (1,2300)              5.47858251E-02
    2195    (1,2301)              5.47858251E-02
    2196    (1,2302)              5.47860926E-02
    2197    (1,2303)              5.48242187E-02
    2198    (1,2304)              5.48242187E-02
    2199    (1,2305)              5.47859589E-02
    2200    (1,2306)              5.47856913E-02
    2201    (1,2307)              5.47856913E-02
    2202    (1,2308)              5.47862264E-02
    2203    (1,2309)              5.47897046E-02
    2204    (1,2312)              5.47856913E-02
    2205    (1,2313)              5.47856913E-02
    2206    (1,2314)              5.47855575E-02
    2207    (1,2315)              5.47851562E-02
    2208    (1,2316)              5.47860926E-02
    2209    (1,2317)              5.48250214E-02
    2210    (1,2318)              5.48286333E-02
    2211    (1,2319)              5.47981324E-02
    2212    (1,2320)              5.47943867E-02
    2213    (1,2321)              5.47856913E-02
    2214    (1,2322)              5.47856913E-02
    2215    (1,2323)              5.47854238E-02
    2216    (1,2324)              5.47854238E-02
    2217    (1,2325)              5.47862264E-02
    2218    (1,2326)              5.48246200E-02
    2219    (1,2327)              5.48244863E-02
    2220    (1,2328)              5.47850224E-02
    2221    (1,2329)              5.47856913E-02
    2222    (1,2330)              5.47860926E-02
    2223    (1,2331)              5.47854238E-02
    2224    (1,2332)              5.47863602E-02
    2225    (1,2333)              5.47897046E-02
    2226    (1,2334)              5.47901059E-02
    2227    (1,2335)              5.48246200E-02
    2228    (1,2336)              5.48250214E-02
    2229    (1,2337)              5.47858251E-02
    2230    (1,2338)              5.47856913E-02
    2231    (1,2339)              5.47852900E-02
    2232    (1,2340)              5.47859589E-02
    2233    (1,2341)              5.47856913E-02
    2234    (1,2342)              5.47943867E-02
    2235    (1,2343)              5.47941192E-02
    2236    (1,2344)              5.47856913E-02
    2237    (1,2345)              5.48244863E-02
    2238    (1,2346)              5.48153895E-02
    2239    (1,2347)              1.36968910E-02
    2240    (1,2348)              1.36964897E-02
    2241    (1,2349)              1.36966235E-02
    2242    (1,2350)              1.36964897E-02
    2243    (1,2351)              1.36963559E-02
    2244    (1,2352)              1.36964897E-02
    2245    (1,2353)              1.36964897E-02
    2246    (1,2354)              1.36983626E-02
    2247    (1,2355)              5.47990689E-02
    2248    (1,2356)              5.47860926E-02
    2249    (1,2357)              5.47852900E-02
    2250    (1,2358)              5.47863602E-02
    2251    (1,2359)              5.47856913E-02
    2252    (1,2360)              5.48232823E-02
    2253    (1,2361)              1.36964897E-02
    2254    (1,2362)              1.36983626E-02
    2255    (1,2363)              1.37174925E-02
    2256    (1,2364)              1.36959546E-02
    2257    (1,2365)              3.41997538E-03
    2258    (1,2366)              3.41890518E-03
    2259    (1,2367)              3.42853703E-03
    2260    (1,2368)              3.41863763E-03
    2261    (1,2369)              1.37013056E-02
    2262    (1,2370)              1.36968910E-02
    2263    (1,2371)              1.36962222E-02
    2264    (1,2372)              5.47942529E-02
    2265    (1,2373)              5.47862264E-02
    2266    (1,2374)              5.47856913E-02
    2267    (1,2375)              5.47850224E-02
    2268    (1,2376)              5.47854238E-02
    2269    (1,2377)              5.47893032E-02
    2270    (1,2378)              5.48286333E-02
    2271    (1,2379)              5.48246200E-02
    2272    (1,2380)              5.47858251E-02
    2273    (1,2381)              5.47858251E-02
    2274    (1,2382)              5.47856913E-02
    2275    (1,2383)              5.47858251E-02
    2276    (1,2384)              5.47860926E-02
    2277    (1,2385)              5.47858251E-02
    2278    (1,2386)              5.47854238E-02
    2279    (1,2387)              5.47855575E-02
    2280    (1,2388)              5.48240849E-02
    2281    (1,2389)              5.48248876E-02
    2282    (1,2390)              5.47856913E-02
    2283    (1,2391)              5.47860926E-02
    2284    (1,2392)              5.47890357E-02
    2285    (1,2393)              5.47887681E-02
    2286    (1,2396)              5.47851562E-02
    2287    (1,2397)              5.47858251E-02
    2288    (1,2398)              5.47856913E-02
    2289    (1,2399)              5.47856913E-02
    2290    (1,2400)              5.47894370E-02
    2291    (1,2401)              5.48278306E-02
    2292    (1,2402)              1.36967573E-02
    2293    (1,2403)              1.36958208E-02
    2294    (1,2404)              1.37160210E-02
    2295    (1,2405)              1.36923427E-02
    2296    (1,2406)              1.36960884E-02
    2297    (1,2407)              1.36967573E-02
    2298    (1,2408)              3.42974101E-03
    2299    (1,2409)              3.42880458E-03
    2300    (1,2410)              3.41877140E-03
    2301    (1,2411)              3.42826947E-03
    2302    (1,2412)              1.36976937E-02
    2303    (1,2413)              5.47962596E-02
    2304    (1,2414)              5.47860926E-02
    2305    (1,2415)              5.47862264E-02
    2306    (1,2416)              5.47858251E-02
    2307    (1,2417)              5.47860926E-02
    2308    (1,2418)              5.47854238E-02
    2309    (1,2419)              5.48247538E-02
    2310    (1,2420)              5.48243525E-02
    2311    (1,2421)              5.47856913E-02
    2312    (1,2422)              5.47859589E-02
    2313    (1,2423)              5.47856913E-02
    2314    (1,2424)              5.47903735E-02
    2315    (1,2425)              5.47894370E-02
    2316    (1,2426)              5.47858251E-02
    2317    (1,2427)              5.47862264E-02
    2318    (1,2428)              5.48246200E-02
    2319    (1,2429)              5.48250214E-02
    2320    (1,2430)              5.47856913E-02
    2321    (1,2431)              5.47855575E-02
    2322    (1,2432)              5.47855575E-02
    2323    (1,2433)              5.47862264E-02
    2324    (1,2434)              5.47854238E-02
    2325    (1,2435)              5.47854238E-02
    2326    (1,2436)              5.47768621E-02
    2327    (1,2437)              5.47769959E-02
    2328    (1,2438)              5.48259578E-02
    2329    (1,2439)              1.36966235E-02
    2330    (1,2440)              1.37017070E-02
    2331    (1,2441)              1.37158872E-02
    2332    (1,2442)              3.41984161E-03
    2333    (1,2443)              3.41957406E-03
    2334    (1,2444)              3.42907213E-03
    2335    (1,2445)              3.41970783E-03
    2336    (1,2446)              1.36986301E-02
    2337    (1,2447)              1.36960884E-02
    2338    (1,2448)              1.37013056E-02
    2339    (1,2449)              1.36966235E-02
    2340    (1,2450)              5.47959920E-02
    2341    (1,2451)              5.47862264E-02
    2342    (1,2452)              5.47859589E-02
    2343    (1,2453)              5.47858251E-02
    2344    (1,2454)              5.47856913E-02
    2345    (1,2455)              5.47863602E-02
    2346    (1,2456)              5.48228809E-02
    2347    (1,2457)              5.48140517E-02
    2348    (1,2458)              5.47858251E-02
    2349    (1,2459)              5.47858251E-02
    2350    (1,2460)              5.47863602E-02
    2351    (1,2461)              5.47862264E-02
    2352    (1,2462)              5.47899721E-02
    2353    (1,2463)              5.47901059E-02
    2354    (1,2464)              5.47858251E-02
    2355    (1,2465)              5.48251551E-02
    2356    (1,2466)              5.48244863E-02
    2357    (1,2467)              5.47859589E-02
    2358    (1,2468)              5.47856913E-02
    2359    (1,2469)              5.47859589E-02
    2360    (1,2470)              5.47855575E-02
    2361    (1,2471)              5.47858251E-02
    2362    (1,2472)              5.47854238E-02
    2363    (1,2473)              5.47855575E-02
    2364    (1,2474)              5.47856913E-02
    2365    (1,2475)              5.48244863E-02
    2366    (1,2476)              5.48243525E-02
    2367    (1,2477)              5.47893032E-02
    2368    (1,2478)              5.47891695E-02
    2369    (1,2479)              5.47860926E-02
    2370    (1,2482)              5.47862264E-02
    2371    (1,2483)              5.47854238E-02
    2372    (1,2484)              5.47895708E-02
    2373    (1,2485)              5.47890357E-02
    2374    (1,2486)              5.47860926E-02
    2375    (1,2487)              5.48240849E-02
    2376    (1,2488)              1.36926102E-02
    2377    (1,2489)              1.36959546E-02
    2378    (1,2490)              1.37162885E-02
    2379    (1,2491)              1.36959546E-02
    2380    (1,2492)              5.47962596E-02
    2381    (1,2493)              5.47855575E-02
    2382    (1,2494)              5.47859589E-02
    2383    (1,2495)              5.47855575E-02
    2384    (1,2496)              5.47859589E-02
    2385    (1,2497)              5.47856913E-02
    2386    (1,2498)              5.47860926E-02
    2387    (1,2499)              5.48243525E-02
    2388    (1,2500)              5.48240849E-02
    2389    (1,2501)              5.47852900E-02
    2390    (1,2502)              5.47901059E-02
    2391    (1,2503)              5.47898384E-02
    2392    (1,2504)              5.47854238E-02
    2393    (1,2505)              5.47862264E-02
    2394    (1,2506)              5.47856913E-02
    2395    (1,2507)              5.47859589E-02
    2396    (1,2508)              5.48247538E-02
    2397    (1,2509)              5.48251551E-02
    2398    (1,2510)              5.47851562E-02
    2399    (1,2511)              5.47854238E-02
    2400    (1,2512)              5.47858251E-02
    2401    (1,2513)              5.47856913E-02
    2402    (1,2514)              5.47957245E-02
    2403    (1,2515)              1.36966235E-02
    2404    (1,2516)              1.36967573E-02
    2405    (1,2517)              1.36958208E-02
    2406    (1,2518)              1.36967573E-02
    2407    (1,2519)              1.37014394E-02
    2408    (1,2520)              1.36963559E-02
    2409    (1,2521)              3.41944028E-03
    2410    (1,2522)              3.41810252E-03
    2411    (1,2523)              3.42800192E-03
    2412    (1,2524)              3.41917273E-03
    2413    (1,2525)              1.37010381E-02
    2414    (1,2526)              5.47880993E-02
    2415    (1,2527)              1.36984963E-02
    2416    (1,2528)              1.37164223E-02
    2417    (1,2529)              1.36960884E-02
    2418    (1,2530)              1.36963559E-02
    2419    (1,2531)              1.36963559E-02
    2420    (1,2532)              1.36970248E-02
    2421    (1,2533)              1.37160210E-02
    2422    (1,2534)              1.36963559E-02
    2423    (1,2535)              5.48053563E-02
    2424    (1,2536)              5.47942529E-02
    2425    (1,2537)              5.47863602E-02
    2426    (1,2538)              5.47943867E-02
    2427    (1,2539)              5.47860926E-02
    2428    (1,2540)              5.47859589E-02
    2429    (1,2541)              5.47851562E-02
    2430    (1,2542)              5.48161922E-02
    2431    (1,2543)              5.48248876E-02
    2432    (1,2544)              5.47862264E-02
    2433    (1,2545)              5.47856913E-02
    2434    (1,2546)              5.47997378E-02
    2435    (1,2547)              5.47982662E-02
    2436    (1,2548)              5.47855575E-02
    2437    (1,2549)              5.47753906E-02
    2438    (1,2550)              5.47859589E-02
    2439    (1,2551)              5.48250214E-02
    2440    (1,2552)              5.48244863E-02
    2441    (1,2553)              5.47855575E-02
    2442    (1,2554)              5.47859589E-02
    2443    (1,2555)              5.47856913E-02
    2444    (1,2556)              5.47858251E-02
    2445    (1,2557)              5.47856913E-02
    2446    (1,2558)              5.47859589E-02
    2447    (1,2559)              5.47856913E-02
    2448    (1,2560)              5.47850224E-02
    2449    (1,2561)              5.48276969E-02
    2450    (1,2562)              5.48282320E-02
    2451    (1,2563)              5.47858251E-02
    2452    (1,2564)              5.47851562E-02
    2453    (1,2567)              5.47897046E-02
    2454    (1,2568)              5.47897046E-02
    2455    (1,2569)              5.47855575E-02
    2456    (1,2570)              5.47860926E-02
    2457    (1,2571)              5.47854238E-02
    2458    (1,2572)              5.48260916E-02
    2459    (1,2573)              5.48247538E-02
    2460    (1,2574)              5.47855575E-02
    2461    (1,2575)              5.47855575E-02
    2462    (1,2576)              5.47854238E-02
    2463    (1,2577)              5.47856913E-02
    2464    (1,2578)              5.47856913E-02
    2465    (1,2579)              5.47855575E-02
    2466    (1,2580)              5.47860926E-02
    2467    (1,2581)              5.48242187E-02
    2468    (1,2582)              5.48284995E-02
    2469    (1,2583)              5.47897046E-02
    2470    (1,2584)              5.47858251E-02
    2471    (1,2585)              5.47862264E-02
    2472    (1,2586)              5.47859589E-02
    2473    (1,2587)              5.47858251E-02
    2474    (1,2588)              5.47863602E-02
    2475    (1,2589)              5.47860926E-02
    2476    (1,2590)              5.48247538E-02
    2477    (1,2591)              5.48242187E-02
    2478    (1,2592)              5.47852900E-02
    2479    (1,2593)              5.47858251E-02
    2480    (1,2594)              5.47856913E-02
    2481    (1,2595)              5.47854238E-02
    2482    (1,2596)              5.48061590E-02
    2483    (1,2597)              1.36959546E-02
    2484    (1,2598)              1.36966235E-02
    2485    (1,2599)              1.36960884E-02
    2486    (1,2600)              1.36987639E-02
    2487    (1,2601)              5.47691031E-02
    2488    (1,2602)              5.48045537E-02
    2489    (1,2603)              1.36964897E-02
    2490    (1,2604)              1.37160210E-02
    2491    (1,2605)              1.36962222E-02
    2492    (1,2606)              1.36964897E-02
    2493    (1,2607)              1.36964897E-02
    2494    (1,2608)              1.37014394E-02
    2495    (1,2609)              1.37165561E-02
    2496    (1,2610)              3.41917273E-03
    2497    (1,2611)              3.41863763E-03
    2498    (1,2612)              3.42853703E-03
    2499    (1,2613)              3.41970783E-03
    2500    (1,2614)              1.36964897E-02
    2501    (1,2615)              1.36960884E-02
    2502    (1,2616)              1.37015732E-02
    2503    (1,2617)              1.36964897E-02
    2504    (1,2618)              5.47947881E-02
    2505    (1,2619)              1.36971586E-02
    2506    (1,2620)              1.36984963E-02
    2507    (1,2621)              1.36936804E-02
    2508    (1,2622)              1.36966235E-02
    2509    (1,2623)              5.47942529E-02
    2510    (1,2624)              5.47862264E-02
    2511    (1,2625)              5.47874304E-02
    2512    (1,2626)              1.36963559E-02
    2513    (1,2627)              1.36960884E-02
    2514    (1,2628)              1.36966235E-02
    2515    (1,2629)              1.36962222E-02
    2516    (1,2630)              1.36956871E-02
    2517    (1,2631)              1.37156196E-02
    2518    (1,2632)              1.36959546E-02
    2519    (1,2633)              1.36912725E-02
    2520    (1,2634)              5.48243525E-02
    2521    (1,2635)              5.47903735E-02
    2522    (1,2636)              1.36982288E-02
    2523    (1,2637)              1.36960884E-02
    2524    (1,2638)              1.36960884E-02
    2525    (1,2639)              1.37010381E-02
    2526    (1,2640)              1.36967573E-02
    2527    (1,2641)              1.36964897E-02
    2528    (1,2642)              3.42010916E-03
    2529    (1,2643)              3.42880458E-03
    2530    (1,2644)              3.41796875E-03
    2531    (1,2645)              3.41850385E-03
    2532    (1,2646)              1.36970248E-02
    2533    (1,2647)              5.48054901E-02
    2534    (1,2648)              1.36963559E-02
    2535    (1,2649)              1.36960884E-02
    2536    (1,2650)              1.36964897E-02
    2537    (1,2651)              1.37006368E-02
    2538    (1,2652)              5.47668289E-02
    2539    (1,2653)              5.47856913E-02
    2540    (1,2654)              5.48246200E-02
    2541    (1,2655)              5.48254227E-02
    2542    (1,2656)              5.47965271E-02
    2543    (1,2657)              5.47967947E-02
    2544    (1,2658)              5.47962596E-02
    2545    (1,2659)              5.47967947E-02
    2546    (1,2660)              5.47965271E-02
    2547    (1,2661)              5.47771297E-02
    2548    (1,2662)              5.47803403E-02
    2549    (1,2663)              5.47784674E-02
    2550    (1,2664)              5.48240849E-02
    2551    (1,2665)              5.48240849E-02
    2552    (1,2666)              5.47859589E-02
    2553    (1,2669)              5.47862264E-02
    2554    (1,2670)              5.47858251E-02
    2555    (1,2671)              5.47855575E-02
    2556    (1,2672)              5.47862264E-02
    2557    (1,2673)              5.47859589E-02
    2558    (1,2674)              5.48240849E-02
    2559    (1,2675)              5.48246200E-02
    2560    (1,2676)              5.47856913E-02
    2561    (1,2677)              5.47859589E-02
    2562    (1,2678)              5.47860926E-02
    2563    (1,2679)              5.47855575E-02
    2564    (1,2680)              5.47859589E-02
    2565    (1,2681)              5.47859589E-02
    2566    (1,2682)              5.47895708E-02
    2567    (1,2683)              5.48280982E-02
    2568    (1,2684)              5.48247538E-02
    2569    (1,2685)              5.47859589E-02
    2570    (1,2686)              5.47862264E-02
    2571    (1,2687)              5.47859589E-02
    2572    (1,2688)              5.47855575E-02
    2573    (1,2689)              5.47864940E-02
    2574    (1,2690)              5.47860926E-02
    2575    (1,2691)              5.47856913E-02
    2576    (1,2692)              5.48248876E-02
    2577    (1,2693)              5.48246200E-02
    2578    (1,2694)              5.47860926E-02
    2579    (1,2695)              5.47859589E-02
    2580    (1,2696)              5.47863602E-02
    2581    (1,2697)              5.47902397E-02
    2582    (1,2698)              5.48157908E-02
    2583    (1,2699)              1.36963559E-02
    2584    (1,2700)              1.36963559E-02
    2585    (1,2701)              1.36958208E-02
    2586    (1,2702)              1.36962222E-02
    2587    (1,2703)              5.47862264E-02
    2588    (1,2704)              1.36960884E-02
    2589    (1,2705)              1.36968910E-02
    2590    (1,2706)              1.37018407E-02
    2591    (1,2707)              3.41890518E-03
    2592    (1,2708)              3.42840325E-03
    2593    (1,2709)              3.41823630E-03
    2594    (1,2710)              3.41997538E-03
    2595    (1,2711)              1.36960884E-02
    2596    (1,2712)              1.37162885E-02
    2597    (1,2713)              1.37018407E-02
    2598    (1,2714)              3.41917273E-03
    2599    (1,2715)              3.42907213E-03
    2600    (1,2716)              3.41930650E-03
    2601    (1,2717)              3.41944028E-03
    2602    (1,2718)              1.36960884E-02
    2603    (1,2719)              1.36964897E-02
    2604    (1,2720)              1.37150845E-02
    2605    (1,2721)              1.36962222E-02
    2606    (1,2722)              1.36962222E-02
    2607    (1,2723)              1.36984963E-02
    2608    (1,2724)              1.36982288E-02
    2609    (1,2725)              1.36959546E-02
    2610    (1,2726)              3.42974101E-03
    2611    (1,2727)              3.41890518E-03
    2612    (1,2728)              3.42907213E-03
    2613    (1,2729)              3.42867080E-03
    2614    (1,2730)              1.36918076E-02
    2615    (1,2731)              1.36970248E-02
    2616    (1,2732)              1.36968910E-02
    2617    (1,2733)              5.47951894E-02
    2618    (1,2734)              5.47962596E-02
    2619    (1,2735)              1.36968910E-02
    2620    (1,2736)              1.36916738E-02
    2621    (1,2737)              1.36962222E-02
    2622    (1,2738)              1.36964897E-02
    2623    (1,2739)              3.43027611E-03
    2624    (1,2740)              3.42933968E-03
    2625    (1,2741)              3.41984161E-03
    2626    (1,2742)              3.42786815E-03
    2627    (1,2743)              1.36955533E-02
    2628    (1,2744)              1.36910049E-02
    2629    (1,2745)              1.37010381E-02
    2630    (1,2746)              1.36971586E-02
    2631    (1,2747)              3.42880458E-03
    2632    (1,2748)              3.41890518E-03
    2633    (1,2749)              3.42773437E-03
    2634    (1,2750)              3.42907213E-03
    2635    (1,2751)              1.36959546E-02
    2636    (1,2752)              1.36968910E-02
    2637    (1,2753)              1.36914062E-02
    2638    (1,2754)              1.37156196E-02
    2639    (1,2755)              1.36960884E-02
    2640    (1,2756)              1.36935466E-02
    2641    (1,2757)              1.36987639E-02
    2642    (1,2758)              1.36962222E-02
    2643    (1,2759)              1.37158872E-02
    2644    (1,2760)              1.36968910E-02
    2645    (1,2761)              1.36966235E-02
    2646    (1,2762)              1.36962222E-02
    2647    (1,2763)              1.36970248E-02
    2648    (1,2764)              1.36963559E-02
    2649    (1,2765)              1.37017070E-02
    2650    (1,2766)              1.36967573E-02
    2651    (1,2767)              1.36964897E-02
    2652    (1,2768)              1.36963559E-02
    2653    (1,2769)              5.47852900E-02
    2654    (1,2770)              1.37161547E-02
    2655    (1,2771)              3.42010916E-03
    2656    (1,2772)              3.41984161E-03
    2657    (1,2773)              3.42947346E-03
    2658    (1,2774)              3.41850385E-03
    2659    (1,2775)              1.36970248E-02
    2660    (1,2776)              1.37149508E-02
    2661    (1,2777)              1.37003692E-02
    2662    (1,2778)              1.36959546E-02
    2663    (1,2779)              1.36970248E-02
    2664    (1,2780)              1.36971586E-02
    2665    (1,2781)              5.47670965E-02
    2666    (1,2782)              5.47882330E-02
    2667    (1,2783)              1.36966235E-02
    2668    (1,2784)              1.37161547E-02
    2669    (1,2785)              1.36966235E-02
    2670    (1,2786)              1.36966235E-02
    2671    (1,2787)              1.36964897E-02
    2672    (1,2788)              1.36966235E-02
    2673    (1,2789)              1.37160210E-02
    2674    (1,2790)              1.36968910E-02
    2675    (1,2791)              1.36958208E-02
    2676    (1,2792)              1.36959546E-02
    2677    (1,2793)              1.36959546E-02
    2678    (1,2794)              1.36970248E-02
    2679    (1,2795)              1.36964897E-02
    2680    (1,2796)              1.36962222E-02
    2681    (1,2797)              1.36960884E-02
    2682    (1,2798)              1.36962222E-02
    2683    (1,2799)              1.36963559E-02
    2684    (1,2800)              1.36968910E-02
    2685    (1,2801)              1.36966235E-02
    2686    (1,2802)              1.36963559E-02
    2687    (1,2803)              1.36968910E-02
    2688    (1,2804)              1.36970248E-02
    2689    (1,2805)              1.36959546E-02
    2690    (1,2806)              1.36968910E-02
    2691    (1,2807)              1.37153521E-02
    2692    (1,2808)              1.36966235E-02
    2693    (1,2809)              1.36968910E-02
    2694    (1,2810)              1.37180276E-02
    2695    (1,2811)              1.36980950E-02
    2696    (1,2812)              1.36966235E-02
    2697    (1,2813)              1.36966235E-02
    2698    (1,2814)              1.36962222E-02
    2699    (1,2815)              1.36956871E-02
    2700    (1,2816)              1.36968910E-02
    2701    (1,2817)              1.36963559E-02
    2702    (1,2818)              1.36968910E-02
    2703    (1,2819)              5.47649561E-02
    2704    (1,2820)              5.48242187E-02
    2705    (1,2821)              5.48242187E-02
    2706    (1,2824)              5.47856913E-02
    2707    (1,2825)              5.47854238E-02
    2708    (1,2826)              5.47856913E-02
    2709    (1,2827)              5.47852900E-02
    2710    (1,2828)              5.47855575E-02
    2711    (1,2829)              5.48242187E-02
    2712    (1,2830)              5.48239512E-02
    2713    (1,2831)              5.47855575E-02
    2714    (1,2832)              5.47855575E-02
    2715    (1,2833)              5.47851562E-02
    2716    (1,2834)              5.47856913E-02
    2717    (1,2835)              5.47902397E-02
    2718    (1,2836)              5.47898384E-02
    2719    (1,2837)              5.47862264E-02
    2720    (1,2838)              5.48246200E-02
    2721    (1,2839)              5.48247538E-02
    2722    (1,2840)              5.47863602E-02
    2723    (1,2841)              5.47859589E-02
    2724    (1,2842)              5.47860926E-02
    2725    (1,2843)              5.47859589E-02
    2726    (1,2844)              5.47852900E-02
    2727    (1,2845)              5.47859589E-02
    2728    (1,2846)              5.47854238E-02
    2729    (1,2847)              5.48242187E-02
    2730    (1,2848)              5.48244863E-02
    2731    (1,2849)              5.47859589E-02
    2732    (1,2850)              5.47894370E-02
    2733    (1,2851)              5.47790025E-02
    2734    (1,2852)              1.36966235E-02
    2735    (1,2853)              1.36955533E-02
    2736    (1,2854)              1.36970248E-02
    2737    (1,2855)              1.36966235E-02
    2738    (1,2856)              3.42840325E-03
    2739    (1,2857)              3.42893835E-03
    2740    (1,2858)              3.42974101E-03
    2741    (1,2859)              3.42920590E-03
    2742    (1,2860)              1.36959546E-02
    2743    (1,2861)              1.36958208E-02
    2744    (1,2862)              1.37154859E-02
    2745    (1,2863)              5.47749893E-02
    2746    (1,2864)              1.36967573E-02
    2747    (1,2865)              1.37013056E-02
    2748    (1,2866)              1.36967573E-02
    2749    (1,2867)              1.37010381E-02
    2750    (1,2868)              1.36959546E-02
    2751    (1,2869)              1.37021083E-02
    2752    (1,2870)              1.36964897E-02
    2753    (1,2871)              1.36963559E-02
    2754    (1,2872)              1.36966235E-02
    2755    (1,2873)              3.42920590E-03
    2756    (1,2874)              3.42907213E-03
    2757    (1,2875)              3.42907213E-03
    2758    (1,2876)              3.42907213E-03
    2759    (1,2877)              1.36991652E-02
    2760    (1,2878)              1.36964897E-02
    2761    (1,2879)              1.36966235E-02
    2762    (1,2880)              1.36964897E-02
    2763    (1,2881)              1.37158872E-02
    2764    (1,2882)              1.36959546E-02
    2765    (1,2883)              5.47838184E-02
    2766    (1,2884)              5.47858251E-02
    2767    (1,2885)              5.47771297E-02
    2768    (1,2886)              1.37157534E-02
    2769    (1,2887)              1.36964897E-02
    2770    (1,2888)              1.36967573E-02
    2771    (1,2889)              1.37158872E-02
    2772    (1,2890)              1.36971586E-02
    2773    (1,2891)              3.41917273E-03
    2774    (1,2892)              3.41850385E-03
    2775    (1,2893)              3.42880458E-03
    2776    (1,2894)              3.41997538E-03
    2777    (1,2895)              1.36962222E-02
    2778    (1,2896)              1.36971586E-02
    2779    (1,2897)              1.37015732E-02
    2780    (1,2898)              1.36970248E-02
    2781    (1,2899)              1.36915400E-02
    2782    (1,2900)              3.42947346E-03
    2783    (1,2901)              3.42920590E-03
    2784    (1,2902)              3.42010916E-03
    2785    (1,2903)              3.42920590E-03
    2786    (1,2904)              1.36932791E-02
    2787    (1,2905)              3.43014233E-03
    2788    (1,2906)              3.41863763E-03
    2789    (1,2907)              3.42880458E-03
    2790    (1,2908)              3.42853703E-03
    2791    (1,2909)              3.42947346E-03
    2792    (1,2910)              3.41877140E-03
    2793    (1,2911)              3.42880458E-03
    2794    (1,2912)              3.42867080E-03
    2795    (1,2913)              1.36916738E-02
    2796    (1,2914)              1.36924764E-02
    2797    (1,2915)              3.42933968E-03
    2798    (1,2916)              3.42853703E-03
    2799    (1,2917)              3.42826947E-03
    2800    (1,2918)              3.42853703E-03
    2801    (1,2919)              1.36958208E-02
    2802    (1,2920)              1.36970248E-02
    2803    (1,2921)              1.36926102E-02
    2804    (1,2922)              3.43027611E-03
    2805    (1,2923)              3.42893835E-03
    2806    (1,2924)              3.41877140E-03
    2807    (1,2925)              3.42813570E-03
    2808    (1,2926)              3.42907213E-03
    2809    (1,2927)              3.42800192E-03
    2810    (1,2928)              3.42853703E-03
    2811    (1,2929)              3.42853703E-03
    2812    (1,2930)              1.36920751E-02
    2813    (1,2931)              1.36975599E-02
    2814    (1,2932)              1.36967573E-02
    2815    (1,2933)              1.36963559E-02
    2816    (1,2934)              1.36966235E-02
    2817    (1,2935)              5.47941192E-02
    2818    (1,2936)              1.36963559E-02
    2819    (1,2937)              1.36966235E-02
    2820    (1,2938)              1.36964897E-02
    2821    (1,2939)              1.36962222E-02
    2822    (1,2940)              1.37158872E-02
    2823    (1,2941)              1.36964897E-02
    2824    (1,2942)              1.36967573E-02
    2825    (1,2943)              1.37157534E-02
    2826    (1,2944)              1.36963559E-02
    2827    (1,2945)              1.36983626E-02
    2828    (1,2946)              1.36983626E-02
    2829    (1,2947)              1.36964897E-02
    2830    (1,2948)              1.36962222E-02
    2831    (1,2949)              1.36964897E-02
    2832    (1,2950)              1.36962222E-02
    2833    (1,2951)              1.36964897E-02
    2834    (1,2952)              1.36963559E-02
    2835    (1,2953)              1.36967573E-02
    2836    (1,2954)              1.36962222E-02
    2837    (1,2955)              1.36964897E-02
    2838    (1,2956)              5.48133829E-02
    2839    (1,2957)              5.48141855E-02
    2840    (1,2958)              5.47756581E-02
    2841    (1,2959)              5.47748555E-02
    2842    (1,2960)              5.47687018E-02
    2843    (1,2961)              1.36978275E-02
    2844    (1,2962)              1.36967573E-02
    2845    (1,2963)              1.36966235E-02
    2846    (1,2964)              1.36956871E-02
    2847    (1,2965)              1.37160210E-02
    2848    (1,2966)              1.36960884E-02
    2849    (1,2967)              1.36966235E-02
    2850    (1,2968)              1.37158872E-02
    2851    (1,2969)              1.36959546E-02
    2852    (1,2970)              1.36963559E-02
    2853    (1,2971)              1.36960884E-02
    2854    (1,2972)              1.36958208E-02
    2855    (1,2973)              1.36963559E-02
    2856    (1,2974)              1.36956871E-02
    2857    (1,2975)              1.36968910E-02
    2858    (1,2976)              1.36964897E-02
    2859    (1,2977)              5.47669627E-02
    2860    (1,2978)              5.48246200E-02
    2861    (1,2981)              5.47854238E-02
    2862    (1,2982)              5.47858251E-02
    2863    (1,2983)              5.47859589E-02
    2864    (1,2984)              5.47859589E-02
    2865    (1,2985)              5.47856913E-02
    2866    (1,2986)              5.48247538E-02
    2867    (1,2987)              5.48236836E-02
    2868    (1,2988)              5.47856913E-02
    2869    (1,2989)              5.47854238E-02
    2870    (1,2990)              5.47891695E-02
    2871    (1,2991)              5.47898384E-02
    2872    (1,2992)              5.47855575E-02
    2873    (1,2993)              5.47859589E-02
    2874    (1,2994)              5.47862264E-02
    2875    (1,2995)              5.48247538E-02
    2876    (1,2996)              5.48240849E-02
    2877    (1,2997)              5.47854238E-02
    2878    (1,2998)              5.47859589E-02
    2879    (1,2999)              5.47862264E-02
    2880    (1,3000)              5.47858251E-02
    2881    (1,3001)              5.47864940E-02
    2882    (1,3002)              5.47860926E-02
    2883    (1,3003)              5.47859589E-02
    2884    (1,3004)              5.48248876E-02
    2885    (1,3005)              5.48284995E-02
    2886    (1,3006)              5.47895708E-02
    2887    (1,3007)              5.47852900E-02
    2888    (1,3008)              5.47763270E-02
    2889    (1,3009)              5.47756581E-02
    2890    (1,3010)              1.37158872E-02
    2891    (1,3011)              1.36964897E-02
    2892    (1,3012)              1.36968910E-02
    2893    (1,3013)              3.42867080E-03
    2894    (1,3014)              3.42813570E-03
    2895    (1,3015)              3.42893835E-03
    2896    (1,3016)              3.42974101E-03
    2897    (1,3017)              1.36966235E-02
    2898    (1,3018)              3.41984161E-03
    2899    (1,3019)              3.41930650E-03
    2900    (1,3020)              3.42907213E-03
    2901    (1,3021)              3.41903895E-03
    2902    (1,3022)              1.36972924E-02
    2903    (1,3023)              1.37007705E-02
    2904    (1,3024)              1.37007705E-02
    2905    (1,3025)              1.36991652E-02
    2906    (1,3026)              1.36979612E-02
    2907    (1,3027)              1.36963559E-02
    2908    (1,3028)              1.36964897E-02
    2909    (1,3029)              1.36962222E-02
    2910    (1,3030)              1.36960884E-02
    2911    (1,3031)              1.36962222E-02
    2912    (1,3032)              5.48131153E-02
    2913    (1,3033)              5.48250214E-02
    2914    (1,3034)              5.47858251E-02
    2915    (1,3035)              5.47765946E-02
    2916    (1,3036)              1.37017070E-02
    2917    (1,3037)              3.41850385E-03
    2918    (1,3038)              3.42840325E-03
    2919    (1,3039)              3.41877140E-03
    2920    (1,3040)              3.41997538E-03
    2921    (1,3041)              1.36967573E-02
    2922    (1,3042)              1.37014394E-02
    2923    (1,3043)              1.37149508E-02
    2924    (1,3044)              1.36918076E-02
    2925    (1,3045)              1.36966235E-02
    2926    (1,3046)              1.37180276E-02
    2927    (1,3047)              3.42960723E-03
    2928    (1,3048)              3.42960723E-03
    2929    (1,3049)              3.41944028E-03
    2930    (1,3050)              3.42960723E-03
    2931    (1,3051)              1.36915400E-02
    2932    (1,3052)              1.36920751E-02
    2933    (1,3053)              1.37006368E-02
    2934    (1,3054)              1.36970248E-02
    2935    (1,3055)              1.36960884E-02
    2936    (1,3056)              1.36968910E-02
    2937    (1,3057)              1.36960884E-02
    2938    (1,3058)              5.47953232E-02
    2939    (1,3059)              1.36974261E-02
    2940    (1,3060)              1.37160210E-02
    2941    (1,3061)              1.36960884E-02
    2942    (1,3062)              1.36958208E-02
    2943    (1,3063)              1.36963559E-02
    2944    (1,3064)              1.36962222E-02
    2945    (1,3065)              1.37160210E-02
    2946    (1,3066)              1.36962222E-02
    2947    (1,3067)              1.36968910E-02
    2948    (1,3068)              1.36962222E-02
    2949    (1,3069)              1.36960884E-02
    2950    (1,3070)              1.36970248E-02
    2951    (1,3071)              1.36962222E-02
    2952    (1,3072)              1.36964897E-02
    2953    (1,3073)              1.36966235E-02
    2954    (1,3074)              1.36963559E-02
    2955    (1,3075)              5.47875642E-02
    2956    (1,3076)              5.47949218E-02
    2957    (1,3077)              5.47946543E-02
    2958    (1,3078)              5.47949218E-02
    2959    (1,3079)              5.47854238E-02
    2960    (1,3080)              5.48244863E-02
    2961    (1,3081)              5.48243525E-02
    2962    (1,3082)              5.47894370E-02
    2963    (1,3083)              5.47897046E-02
    2964    (1,3084)              5.47772634E-02
    2965    (1,3085)              5.47771297E-02
    2966    (1,3086)              5.48056239E-02
    2967    (1,3087)              1.36964897E-02
    2968    (1,3088)              1.36964897E-02
    2969    (1,3089)              1.36960884E-02
    2970    (1,3090)              1.36964897E-02
    2971    (1,3091)              1.36959546E-02
    2972    (1,3092)              1.36964897E-02
    2973    (1,3093)              1.36964897E-02
    2974    (1,3094)              1.36966235E-02
    2975    (1,3095)              5.47664276E-02
    2976    (1,3098)              5.47858251E-02
    2977    (1,3099)              5.47856913E-02
    2978    (1,3100)              5.47855575E-02
    2979    (1,3101)              5.47859589E-02
    2980    (1,3102)              5.47858251E-02
    2981    (1,3103)              5.48243525E-02
    2982    (1,3104)              5.48238174E-02
    2983    (1,3105)              5.47897046E-02
    2984    (1,3106)              5.47893032E-02
    2985    (1,3107)              5.47859589E-02
    2986    (1,3108)              5.47855575E-02
    2987    (1,3109)              5.47859589E-02
    2988    (1,3110)              5.47856913E-02
    2989    (1,3111)              5.47859589E-02
    2990    (1,3112)              5.48248876E-02
    2991    (1,3113)              5.48248876E-02
    2992    (1,3114)              5.47855575E-02
    2993    (1,3115)              5.47860926E-02
    2994    (1,3116)              5.47860926E-02
    2995    (1,3117)              5.47859589E-02
    2996    (1,3118)              5.47855575E-02
    2997    (1,3119)              5.47851562E-02
    2998    (1,3120)              5.47893032E-02
    2999    (1,3121)              5.48284995E-02
    3000    (1,3122)              5.48244863E-02
    3001    (1,3123)              5.47859589E-02
    3002    (1,3124)              5.47752568E-02
    3003    (1,3125)              1.36963559E-02
    3004    (1,3126)              1.36914062E-02
    3005    (1,3127)              1.36971586E-02
    3006    (1,3128)              3.42880458E-03
    3007    (1,3129)              3.41917273E-03
    3008    (1,3130)              3.42826947E-03
    3009    (1,3131)              3.42947346E-03
    3010    (1,3132)              1.37011719E-02
    3011    (1,3133)              3.41984161E-03
    3012    (1,3134)              3.42920590E-03
    3013    (1,3135)              3.41917273E-03
    3014    (1,3136)              3.41863763E-03
    3015    (1,3137)              1.36918076E-02
    3016    (1,3138)              3.42786815E-03
    3017    (1,3139)              3.41890518E-03
    3018    (1,3140)              3.42813570E-03
    3019    (1,3141)              3.42987478E-03
    3020    (1,3142)              1.37154859E-02
    3021    (1,3143)              3.41930650E-03
    3022    (1,3144)              3.42010916E-03
    3023    (1,3145)              3.42933968E-03
    3024    (1,3146)              3.41877140E-03
    3025    (1,3147)              1.36935466E-02
    3026    (1,3148)              1.37160210E-02
    3027    (1,3149)              1.37013056E-02
    3028    (1,3150)              1.36911387E-02
    3029    (1,3151)              1.36967573E-02
    3030    (1,3152)              1.36966235E-02
    3031    (1,3153)              3.42933968E-03
    3032    (1,3154)              3.42853703E-03
    3033    (1,3155)              3.41930650E-03
    3034    (1,3156)              3.42853703E-03
    3035    (1,3157)              1.36966235E-02
    3036    (1,3158)              1.36927440E-02
    3037    (1,3159)              1.36958208E-02
    3038    (1,3160)              5.47748555E-02
    3039    (1,3161)              5.48250214E-02
    3040    (1,3162)              5.48243525E-02
    3041    (1,3163)              5.47859589E-02
    3042    (1,3164)              5.47787350E-02
    3043    (1,3165)              5.47699058E-02
    3044    (1,3166)              1.37157534E-02
    3045    (1,3167)              3.41997538E-03
    3046    (1,3168)              3.41930650E-03
    3047    (1,3169)              3.42880458E-03
    3048    (1,3170)              3.41917273E-03
    3049    (1,3171)              1.36959546E-02
    3050    (1,3172)              1.37166898E-02
    3051    (1,3173)              1.37017070E-02
    3052    (1,3174)              1.36962222E-02
    3053    (1,3175)              1.36966235E-02
    3054    (1,3176)              1.36960884E-02
    3055    (1,3177)              5.47854238E-02
    3056    (1,3178)              1.36971586E-02
    3057    (1,3179)              1.36960884E-02
    3058    (1,3180)              1.36964897E-02
    3059    (1,3181)              1.36967573E-02
    3060    (1,3182)              1.36962222E-02
    3061    (1,3183)              1.37157534E-02
    3062    (1,3184)              1.36967573E-02
    3063    (1,3185)              1.36959546E-02
    3064    (1,3186)              5.48167273E-02
    3065    (1,3187)              5.47768621E-02
    3066    (1,3188)              5.47856913E-02
    3067    (1,3189)              5.47856913E-02
    3068    (1,3190)              5.47859589E-02
    3069    (1,3191)              5.47855575E-02
    3070    (1,3192)              5.47851562E-02
    3071    (1,3193)              5.47855575E-02
    3072    (1,3194)              5.48282320E-02
    3073    (1,3195)              5.48280982E-02
    3074    (1,3196)              5.47858251E-02
    3075    (1,3197)              5.47858251E-02
    3076    (1,3198)              5.47858251E-02
    3077    (1,3199)              5.47854238E-02
    3078    (1,3200)              5.48056239E-02
    3079    (1,3201)              1.36963559E-02
    3080    (1,3202)              1.36964897E-02
    3081    (1,3203)              1.36970248E-02
    3082    (1,3204)              1.36968910E-02
    3083    (1,3205)              1.36963559E-02
    3084    (1,3206)              1.36980950E-02
    3085    (1,3207)              1.36983626E-02
    3086    (1,3208)              1.36964897E-02
    3087    (1,3212)              5.47854238E-02
    3088    (1,3213)              5.47855575E-02
    3089    (1,3214)              5.47856913E-02
    3090    (1,3215)              5.47860926E-02
    3091    (1,3216)              5.47859589E-02
    3092    (1,3217)              5.48287671E-02
    3093    (1,3218)              5.48284995E-02
    3094    (1,3219)              5.47854238E-02
    3095    (1,3220)              5.47854238E-02
    3096    (1,3221)              5.47855575E-02
    3097    (1,3222)              5.47856913E-02
    3098    (1,3223)              5.47852900E-02
    3099    (1,3224)              5.47858251E-02
    3100    (1,3225)              5.47856913E-02
    3101    (1,3226)              5.48244863E-02
    3102    (1,3227)              5.48243525E-02
    3103    (1,3228)              5.47859589E-02
    3104    (1,3229)              5.47852900E-02
    3105    (1,3230)              5.47860926E-02
    3106    (1,3231)              5.47858251E-02
    3107    (1,3232)              5.47897046E-02
    3108    (1,3233)              5.47898384E-02
    3109    (1,3234)              5.47858251E-02
    3110    (1,3235)              5.48244863E-02
    3111    (1,3236)              5.48244863E-02
    3112    (1,3237)              5.47744541E-02
    3113    (1,3238)              1.36964897E-02
    3114    (1,3239)              1.36963559E-02
    3115    (1,3240)              1.36964897E-02
    3116    (1,3241)              1.36964897E-02
    3117    (1,3242)              1.36964897E-02
    3118    (1,3243)              1.36984963E-02
    3119    (1,3244)              1.36983626E-02
    3120    (1,3245)              1.36968910E-02
    3121    (1,3246)              1.36964897E-02
    3122    (1,3247)              1.36960884E-02
    3123    (1,3248)              1.36962222E-02
    3124    (1,3249)              1.36959546E-02
    3125    (1,3250)              5.48036172E-02
    3126    (1,3251)              5.47942529E-02
    3127    (1,3252)              5.47855575E-02
    3128    (1,3253)              5.47856913E-02
    3129    (1,3254)              5.48244863E-02
    3130    (1,3255)              5.48282320E-02
    3131    (1,3256)              5.47890357E-02
    3132    (1,3257)              5.47855575E-02
    3133    (1,3258)              5.47765946E-02
    3134    (1,3259)              5.47965271E-02
    3135    (1,3260)              5.47832833E-02
    3136    (1,3261)              1.36966235E-02
    3137    (1,3262)              1.36964897E-02
    3138    (1,3263)              1.36967573E-02
    3139    (1,3264)              1.36960884E-02
    3140    (1,3265)              5.47883668E-02
    3141    (1,3266)              5.48254227E-02
    3142    (1,3267)              5.48243525E-02
    3143    (1,3268)              5.47856913E-02
    3144    (1,3269)              5.47858251E-02
    3145    (1,3270)              5.47859589E-02
    3146    (1,3271)              5.47856913E-02
    3147    (1,3272)              5.47862264E-02
    3148    (1,3273)              5.47901059E-02
    3149    (1,3274)              5.47894370E-02
    3150    (1,3275)              5.48251551E-02
    3151    (1,3276)              5.48244863E-02
    3152    (1,3277)              5.47859589E-02
    3153    (1,3278)              5.47858251E-02
    3154    (1,3279)              5.47858251E-02
    3155    (1,3280)              5.47856913E-02
    3156    (1,3281)              5.47959920E-02
    3157    (1,3282)              5.47939854E-02
    3158    (1,3285)              5.47858251E-02
    3159    (1,3286)              5.47855575E-02
    3160    (1,3287)              5.47855575E-02
    3161    (1,3288)              5.47889019E-02
    3162    (1,3289)              5.47898384E-02
    3163    (1,3290)              5.48236836E-02
    3164    (1,3291)              5.48240849E-02
    3165    (1,3292)              5.47852900E-02
    3166    (1,3293)              5.47855575E-02
    3167    (1,3294)              5.47858251E-02
    3168    (1,3295)              5.47858251E-02
    3169    (1,3296)              5.47855575E-02
    3170    (1,3297)              5.47856913E-02
    3171    (1,3298)              5.47855575E-02
    3172    (1,3299)              5.48240849E-02
    3173    (1,3300)              5.48243525E-02
    3174    (1,3301)              5.47863602E-02
    3175    (1,3302)              5.47856913E-02
    3176    (1,3303)              5.47898384E-02
    3177    (1,3304)              5.47893032E-02
    3178    (1,3305)              5.47859589E-02
    3179    (1,3306)              5.47858251E-02
    3180    (1,3307)              5.47859589E-02
    3181    (1,3308)              5.48236836E-02
    3182    (1,3309)              5.48243525E-02
    3183    (1,3310)              5.47764608E-02
    3184    (1,3311)              5.47661601E-02
    3185    (1,3312)              1.36964897E-02
    3186    (1,3313)              1.36966235E-02
    3187    (1,3314)              1.36967573E-02
    3188    (1,3315)              1.36962222E-02
    3189    (1,3316)              5.48041523E-02
    3190    (1,3317)              5.47850224E-02
    3191    (1,3318)              5.47848887E-02
    3192    (1,3319)              5.47856913E-02
    3193    (1,3320)              5.47899721E-02
    3194    (1,3321)              5.48286333E-02
    3195    (1,3322)              5.48224796E-02
    3196    (1,3323)              5.47951894E-02
    3197    (1,3324)              5.47949218E-02
    3198    (1,3325)              5.47834171E-02
    3199    (1,3326)              1.37161547E-02
    3200    (1,3327)              1.36967573E-02
    3201    (1,3328)              1.36964897E-02
    3202    (1,3329)              1.37152183E-02
    3203    (1,3330)              1.36970248E-02
    3204    (1,3331)              1.36964897E-02
    3205    (1,3332)              1.36959546E-02
    3206    (1,3333)              1.36966235E-02
    3207    (1,3334)              5.47771297E-02
    3208    (1,3335)              5.47862264E-02
    3209    (1,3336)              5.48240849E-02
    3210    (1,3337)              5.48246200E-02
    3211    (1,3338)              5.47856913E-02
    3212    (1,3339)              5.47859589E-02
    3213    (1,3340)              5.47854238E-02
    3214    (1,3341)              5.47890357E-02
    3215    (1,3342)              5.47890357E-02
    3216    (1,3343)              5.47860926E-02
    3217    (1,3344)              5.47864940E-02
    3218    (1,3345)              5.48250214E-02
    3219    (1,3346)              5.48244863E-02
    3220    (1,3347)              5.47855575E-02
    3221    (1,3348)              5.47859589E-02
    3222    (1,3349)              5.47851562E-02
    3223    (1,3350)              5.47856913E-02
    3224    (1,3351)              5.47858251E-02
    3225    (1,3354)              5.47852900E-02
    3226    (1,3355)              5.47893032E-02
    3227    (1,3356)              5.47887681E-02
    3228    (1,3357)              5.47860926E-02
    3229    (1,3358)              5.47852900E-02
    3230    (1,3359)              5.48242187E-02
    3231    (1,3360)              5.48242187E-02
    3232    (1,3361)              5.47854238E-02
    3233    (1,3362)              5.47855575E-02
    3234    (1,3363)              5.47859589E-02
    3235    (1,3364)              5.47856913E-02
    3236    (1,3365)              5.47855575E-02
    3237    (1,3366)              5.47858251E-02
    3238    (1,3367)              5.47860926E-02
    3239    (1,3368)              5.48247538E-02
    3240    (1,3369)              5.48239512E-02
    3241    (1,3370)              5.47895708E-02
    3242    (1,3371)              5.47898384E-02
    3243    (1,3372)              5.47855575E-02
    3244    (1,3373)              5.47855575E-02
    3245    (1,3374)              5.47863602E-02
    3246    (1,3375)              5.47856913E-02
    3247    (1,3376)              5.47863602E-02
    3248    (1,3377)              5.48236836E-02
    3249    (1,3378)              5.48243525E-02
    3250    (1,3379)              5.47771297E-02
    3251    (1,3380)              1.36964897E-02
    3252    (1,3381)              1.36964897E-02
    3253    (1,3382)              1.36964897E-02
    3254    (1,3383)              1.36959546E-02
    3255    (1,3384)              1.36960884E-02
    3256    (1,3385)              1.36968910E-02
    3257    (1,3386)              1.36958208E-02
    3258    (1,3387)              1.36962222E-02
    3259    (1,3388)              5.48056239E-02
    3260    (1,3389)              5.47854238E-02
    3261    (1,3390)              5.47893032E-02
    3262    (1,3391)              5.47794038E-02
    3263    (1,3392)              5.47835509E-02
    3264    (1,3393)              1.36966235E-02
    3265    (1,3394)              1.37158872E-02
    3266    (1,3395)              1.36966235E-02
    3267    (1,3396)              1.36967573E-02
    3268    (1,3397)              1.36958208E-02
    3269    (1,3398)              1.36959546E-02
    3270    (1,3399)              1.37154859E-02
    3271    (1,3400)              1.36956871E-02
    3272    (1,3401)              1.36968910E-02
    3273    (1,3402)              1.36963559E-02
    3274    (1,3403)              1.36960884E-02
    3275    (1,3404)              1.36968910E-02
    3276    (1,3405)              1.36963559E-02
    3277    (1,3406)              1.36968910E-02
    3278    (1,3407)              1.36962222E-02
    3279    (1,3408)              1.36958208E-02
    3280    (1,3409)              1.36962222E-02
    3281    (1,3410)              1.36959546E-02
    3282    (1,3411)              1.36963559E-02
    3283    (1,3412)              1.36956871E-02
    3284    (1,3413)              5.48069616E-02
    3285    (1,3414)              5.47854238E-02
    3286    (1,3415)              5.47858251E-02
    3287    (1,3416)              5.47860926E-02
    3288    (1,3417)              5.48246200E-02
    3289    (1,3418)              5.48243525E-02
    3290    (1,3419)              5.47863602E-02
    3291    (1,3420)              5.47894370E-02
    3292    (1,3421)              5.47895708E-02
    3293    (1,3422)              5.47854238E-02
    3294    (1,3423)              5.47856913E-02
    3295    (1,3424)              5.47860926E-02
    3296    (1,3425)              5.47855575E-02
    3297    (1,3426)              5.48240849E-02
    3298    (1,3427)              5.48248876E-02
    3299    (1,3428)              5.47852900E-02
    3300    (1,3429)              5.47858251E-02
    3301    (1,3430)              5.47859589E-02
    3302    (1,3431)              5.47855575E-02
    3303    (1,3434)              5.47895708E-02
    3304    (1,3435)              5.47855575E-02
    3305    (1,3436)              5.47862264E-02
    3306    (1,3437)              5.47856913E-02
    3307    (1,3438)              5.47856913E-02
    3308    (1,3439)              5.48246200E-02
    3309    (1,3440)              5.48248876E-02
    3310    (1,3441)              5.47855575E-02
    3311    (1,3442)              5.47864940E-02
    3312    (1,3443)              5.47866277E-02
    3313    (1,3444)              5.47860926E-02
    3314    (1,3445)              5.47858251E-02
    3315    (1,3446)              5.47856913E-02
    3316    (1,3447)              5.47860926E-02
    3317    (1,3448)              5.48282320E-02
    3318    (1,3449)              5.48287671E-02
    3319    (1,3450)              5.47856913E-02
    3320    (1,3451)              5.47859589E-02
    3321    (1,3452)              5.47862264E-02
    3322    (1,3453)              5.47856913E-02
    3323    (1,3454)              5.47859589E-02
    3324    (1,3455)              5.47860926E-02
    3325    (1,3456)              5.47862264E-02
    3326    (1,3457)              5.48248876E-02
    3327    (1,3458)              5.48244863E-02
    3328    (1,3459)              5.47668289E-02
    3329    (1,3460)              1.36968910E-02
    3330    (1,3461)              1.36970248E-02
    3331    (1,3462)              1.36958208E-02
    3332    (1,3463)              1.36966235E-02
    3333    (1,3464)              1.36963559E-02
    3334    (1,3465)              1.36968910E-02
    3335    (1,3466)              1.36959546E-02
    3336    (1,3467)              1.36960884E-02
    3337    (1,3468)              5.48077643E-02
    3338    (1,3469)              5.48069616E-02
    3339    (1,3470)              1.36964897E-02
    3340    (1,3471)              1.36966235E-02
    3341    (1,3472)              1.36958208E-02
    3342    (1,3473)              1.36959546E-02
    3343    (1,3474)              1.36964897E-02
    3344    (1,3475)              1.36967573E-02
    3345    (1,3476)              1.36963559E-02
    3346    (1,3477)              1.36958208E-02
    3347    (1,3478)              1.36967573E-02
    3348    (1,3479)              1.36970248E-02
    3349    (1,3480)              1.36962222E-02
    3350    (1,3481)              1.36963559E-02
    3351    (1,3482)              5.48164597E-02
    3352    (1,3483)              5.48163259E-02
    3353    (1,3484)              5.47764608E-02
    3354    (1,3485)              5.47764608E-02
    3355    (1,3486)              5.47850224E-02
    3356    (1,3487)              5.47856913E-02
    3357    (1,3488)              5.47850224E-02
    3358    (1,3489)              5.47848887E-02
    3359    (1,3490)              5.47854238E-02
    3360    (1,3491)              5.48244863E-02
    3361    (1,3492)              5.48279644E-02
    3362    (1,3493)              5.47889019E-02
    3363    (1,3494)              5.47860926E-02
    3364    (1,3495)              5.47856913E-02
    3365    (1,3496)              5.47860926E-02
    3366    (1,3497)              5.47860926E-02
    3367    (1,3498)              5.47855575E-02
    3368    (1,3499)              5.47856913E-02
    3369    (1,3500)              5.48240849E-02
    3370    (1,3501)              5.48239512E-02
    3371    (1,3502)              5.47854238E-02
    3372    (1,3505)              5.47858251E-02
    3373    (1,3506)              5.47859589E-02
    3374    (1,3507)              5.47858251E-02
    3375    (1,3508)              5.47855575E-02
    3376    (1,3509)              5.47858251E-02
    3377    (1,3510)              5.48247538E-02
    3378    (1,3511)              5.48247538E-02
    3379    (1,3512)              5.47854238E-02
    3380    (1,3513)              5.47855575E-02
    3381    (1,3514)              5.47851562E-02
    3382    (1,3515)              5.47855575E-02
    3383    (1,3516)              5.47851562E-02
    3384    (1,3517)              5.47897046E-02
    3385    (1,3518)              5.47893032E-02
    3386    (1,3519)              5.48246200E-02
    3387    (1,3520)              5.48244863E-02
    3388    (1,3521)              5.47858251E-02
    3389    (1,3522)              5.47858251E-02
    3390    (1,3523)              5.47855575E-02
    3391    (1,3524)              5.47863602E-02
    3392    (1,3525)              5.47863602E-02
    3393    (1,3526)              5.47866277E-02
    3394    (1,3527)              5.47855575E-02
    3395    (1,3528)              5.48244863E-02
    3396    (1,3529)              5.48247538E-02
    3397    (1,3530)              5.47656250E-02
    3398    (1,3531)              1.36963559E-02
    3399    (1,3532)              1.36963559E-02
    3400    (1,3533)              1.36962222E-02
    3401    (1,3534)              1.36987639E-02
    3402    (1,3535)              1.36987639E-02
    3403    (1,3536)              1.36966235E-02
    3404    (1,3537)              1.36960884E-02
    3405    (1,3538)              1.36959546E-02
    3406    (1,3539)              1.36963559E-02
    3407    (1,3540)              1.36966235E-02
    3408    (1,3541)              1.36960884E-02
    3409    (1,3542)              1.36958208E-02
    3410    (1,3543)              1.37164223E-02
    3411    (1,3544)              1.36968910E-02
    3412    (1,3545)              1.36962222E-02
    3413    (1,3546)              1.37156196E-02
    3414    (1,3547)              5.47880993E-02
    3415    (1,3548)              5.47963934E-02
    3416    (1,3549)              5.47856913E-02
    3417    (1,3550)              5.48239512E-02
    3418    (1,3551)              5.48239512E-02
    3419    (1,3552)              5.47859589E-02
    3420    (1,3553)              5.47856913E-02
    3421    (1,3554)              5.47856913E-02
    3422    (1,3555)              5.47858251E-02
    3423    (1,3556)              5.47858251E-02
    3424    (1,3557)              5.47855575E-02
    3425    (1,3558)              5.47901059E-02
    3426    (1,3559)              5.48280982E-02
    3427    (1,3560)              5.48243525E-02
    3428    (1,3561)              5.47856913E-02
    3429    (1,3562)              5.47864940E-02
    3430    (1,3563)              5.47856913E-02
    3431    (1,3564)              5.47859589E-02
    3432    (1,3565)              5.47860926E-02
    3433    (1,3566)              5.47859589E-02
    3434    (1,3567)              5.47858251E-02
    3435    (1,3570)              5.47864940E-02
    3436    (1,3571)              5.47855575E-02
    3437    (1,3572)              5.47851562E-02
    3438    (1,3573)              5.47854238E-02
    3439    (1,3574)              5.47854238E-02
    3440    (1,3575)              5.48246200E-02
    3441    (1,3576)              5.48242187E-02
    3442    (1,3577)              5.47855575E-02
    3443    (1,3578)              5.47854238E-02
    3444    (1,3579)              5.47855575E-02
    3445    (1,3580)              5.47901059E-02
    3446    (1,3581)              5.47901059E-02
    3447    (1,3582)              5.47858251E-02
    3448    (1,3583)              5.47854238E-02
    3449    (1,3584)              5.48242187E-02
    3450    (1,3585)              5.48240849E-02
    3451    (1,3586)              5.47848887E-02
    3452    (1,3587)              5.47855575E-02
    3453    (1,3588)              5.47858251E-02
    3454    (1,3589)              5.47852900E-02
    3455    (1,3590)              5.47855575E-02
    3456    (1,3591)              5.47855575E-02
    3457    (1,3592)              5.47852900E-02
    3458    (1,3593)              5.48246200E-02
    3459    (1,3594)              5.48287671E-02
    3460    (1,3595)              5.47794038E-02
    3461    (1,3596)              5.47775310E-02
    3462    (1,3597)              5.47771297E-02
    3463    (1,3598)              5.47771297E-02
    3464    (1,3599)              5.47855575E-02
    3465    (1,3600)              5.47858251E-02
    3466    (1,3601)              5.47858251E-02
    3467    (1,3602)              5.47860926E-02
    3468    (1,3603)              5.48247538E-02
    3469    (1,3604)              5.48247538E-02
    3470    (1,3605)              5.47860926E-02
    3471    (1,3606)              5.47855575E-02
    3472    (1,3607)              5.47863602E-02
    3473    (1,3608)              5.47856913E-02
    3474    (1,3609)              5.47898384E-02
    3475    (1,3610)              5.47891695E-02
    3476    (1,3611)              5.47855575E-02
    3477    (1,3612)              5.48240849E-02
    3478    (1,3613)              5.48243525E-02
    3479    (1,3614)              5.47855575E-02
    3480    (1,3615)              5.47854238E-02
    3481    (1,3616)              5.47858251E-02
    3482    (1,3617)              5.47852900E-02
    3483    (1,3620)              5.47858251E-02
    3484    (1,3621)              5.47856913E-02
    3485    (1,3622)              5.47863602E-02
    3486    (1,3623)              5.47860926E-02
    3487    (1,3624)              5.47855575E-02
    3488    (1,3625)              5.48243525E-02
    3489    (1,3626)              5.48244863E-02
    3490    (1,3627)              5.47856913E-02
    3491    (1,3628)              5.47890357E-02
    3492    (1,3629)              5.47891695E-02
    3493    (1,3630)              5.47855575E-02
    3494    (1,3631)              5.47858251E-02
    3495    (1,3632)              5.47859589E-02
    3496    (1,3633)              5.47863602E-02
    3497    (1,3634)              5.48243525E-02
    3498    (1,3635)              5.48243525E-02
    3499    (1,3636)              5.47860926E-02
    3500    (1,3637)              5.47862264E-02
    3501    (1,3638)              5.47854238E-02
    3502    (1,3639)              5.47862264E-02
    3503    (1,3640)              5.47854238E-02
    3504    (1,3641)              5.47864940E-02
    3505    (1,3642)              5.47897046E-02
    3506    (1,3643)              5.48284995E-02
    3507    (1,3644)              5.48244863E-02
    3508    (1,3645)              5.47854238E-02
    3509    (1,3646)              5.47856913E-02
    3510    (1,3647)              5.47860926E-02
    3511    (1,3648)              5.47859589E-02
    3512    (1,3649)              5.47855575E-02
    3513    (1,3650)              5.47859589E-02
    3514    (1,3651)              5.47856913E-02
    3515    (1,3652)              5.47854238E-02
    3516    (1,3653)              5.48238174E-02
    3517    (1,3654)              5.48244863E-02
    3518    (1,3655)              5.47859589E-02
    3519    (1,3656)              5.47854238E-02
    3520    (1,3657)              5.47894370E-02
    3521    (1,3658)              5.47898384E-02
    3522    (1,3659)              5.47852900E-02
    3523    (1,3660)              5.47858251E-02
    3524    (1,3661)              5.47854238E-02
    3525    (1,3662)              5.48246200E-02
    3526    (1,3667)              5.47862264E-02
    3527    (1,3668)              5.47856913E-02
    3528    (1,3669)              5.47862264E-02
    3529    (1,3670)              5.47855575E-02
    3530    (1,3671)              5.47856913E-02
    3531    (1,3672)              5.48244863E-02
    3532    (1,3673)              5.48283657E-02
    3533    (1,3674)              5.47898384E-02
    3534    (1,3675)              5.47852900E-02
    3535    (1,3676)              5.47856913E-02
    3536    (1,3677)              5.47854238E-02
    3537    (1,3678)              5.47859589E-02
    3538    (1,3679)              5.47858251E-02
    3539    (1,3680)              5.47856913E-02
    3540    (1,3681)              5.48239512E-02
    3541    (1,3682)              5.48244863E-02
    3542    (1,3683)              5.47860926E-02
    3543    (1,3684)              5.47858251E-02
    3544    (1,3685)              5.47859589E-02
    3545    (1,3686)              5.47854238E-02
    3546    (1,3687)              5.47895708E-02
    3547    (1,3688)              5.47893032E-02
    3548    (1,3689)              5.47858251E-02
    3549    (1,3690)              5.48250214E-02
    3550    (1,3691)              5.48242187E-02
    3551    (1,3692)              5.47862264E-02
    3552    (1,3693)              5.47851562E-02
    3553    (1,3694)              5.47859589E-02
    3554    (1,3695)              5.47859589E-02
    3555    (1,3696)              5.47854238E-02
    3556    (1,3697)              5.47859589E-02
    3557    (1,3698)              5.47858251E-02
    3558    (1,3699)              5.47858251E-02
    3559    (1,3700)              5.48244863E-02
    3560    (1,3701)              5.48243525E-02
    3561    (1,3702)              5.47893032E-02
    3562    (1,3710)              5.47855575E-02
    3563    (1,3711)              5.47855575E-02
    3564    (1,3712)              5.47856913E-02
    3565    (1,3713)              5.47854238E-02
    3566    (1,3714)              5.47901059E-02
    3567    (1,3715)              5.48289009E-02
    3568    (1,3716)              5.48244863E-02
    3569    (1,3717)              5.47848887E-02
    3570    (1,3718)              5.47854238E-02
    3571    (1,3719)              5.47863602E-02
    3572    (1,3720)              5.47858251E-02
    3573    (1,3721)              5.47858251E-02
    3574    (1,3722)              5.47856913E-02
    3575    (1,3723)              5.47863602E-02
    3576    (1,3724)              5.48244863E-02
    3577    (1,3725)              5.48247538E-02
    3578    (1,3746)              5.47862264E-02
    3579    (1,3747)              5.47862264E-02
    3580    (1,3748)              5.47901059E-02
    3581    (1,3749)              5.47895708E-02
    3582    (1,3750)              5.47852900E-02
    3583    (1,3751)              5.48246200E-02
    3584    (1,3752)              5.48243525E-02
    3585    (1,3753)              5.47855575E-02
    3586    (1,3754)              5.47854238E-02
    3587    (1,3755)              5.47859589E-02
    3588    (1,3756)              5.47856913E-02
    3589    (1,3757)              5.47856913E-02
    3590    (1,3758)              5.47854238E-02
    3591    (1,3759)              5.47855575E-02
    3592    (1,3761)              5.47858251E-02
    3593    (1,3762)              5.47894370E-02
    3594    (1,3763)              5.47895708E-02
    3595    (1,3764)              5.47860926E-02
    3596    (1,3765)              5.47852900E-02
    3597    (1,3766)              5.47856913E-02
    3598    (1,3767)              5.48239512E-02
    3599    (1,3768)              5.48247538E-02
    3600    (1,3769)              5.47856913E-02
    3601    (1,3770)              5.47858251E-02
    3602    (1,3771)              5.47860926E-02
    3603    (1,3772)              5.47856913E-02
 -----------------------------------------------



 UBDSV06 SAVING              SFR IN MODEL EXPERIMENTAL     PACKAGE EXPERIMENTAL    CONNECTED TO MODEL EXPERIMENTAL     PACKAGE SFR              ON UNIT   1019 AT TIME STEP      1, STRESS PERIOD      1

 SFR PACKAGE (SFR) FLOW RATES   PERIOD      1   STEP        1
 -----------------------------------------------
   NUMBER   CELLID                    RATE      
 -----------------------------------------------
     1      (1,3210)              0.0000000     
     2      (1,3208)              0.0000000     
     3      (1,3206)              0.0000000     
     4      (1,3205)              0.0000000     
     5      (1,3202)              0.0000000     
     6      (1,3094)              0.0000000     
     7      (1,3093)              0.0000000     
     8      (1,3090)              0.0000000     
     9      (1,3088)              0.0000000     
     10     (1,3087)              0.0000000     
     11     (1,2975)              0.0000000     
     12     (1,2972)              0.0000000     
     13     (1,2970)              0.0000000     
     14     (1,2969)              0.0000000     
     15     (1,2817)              0.0000000     
     16     (1,2814)              0.0000000     
     17     (1,2813)              0.0000000     
     18     (1,2965)              0.0000000     
     19     (1,2962)              0.0000000     
     20     (1,2961)              0.0000000     
     21     (1,2809)              0.0000000     
     22     (1,2806)              0.0000000     
     23     (1,2805)              0.0000000     
     24     (1,2802)              0.0000000     
     25     (1,2801)              0.0000000     
     26     (1,2799)              0.0000000     
     27     (1,2796)              0.0000000     
     28     (1,2795)              0.0000000     
     29     (1,2792)              0.0000000     
     30     (1,2791)              0.0000000     
     31     (1,2788)              0.0000000     
     32     (1,2790)              0.0000000     
     33     (1,2789)              0.0000000     
     34     (1,2786)              0.0000000     
     35     (1,2785)              0.0000000     
     36     (1,2952)              0.0000000     
     37     (1,2949)              0.0000000     
     38     (1,2948)              0.0000000     
     39     (1,2945)              0.0000000     
     40     (1,2944)              0.0000000     
     41     (1,2946)              0.0000000     
     42     (1,2943)              0.0000000     
     43     (1,2942)              0.0000000     
     44     (1,2939)              0.0000000     
     45     (1,2938)              0.0000000     
     46     (1,3071)              0.0000000     
     47     (1,3068)              0.0000000     
     48     (1,3067)              0.0000000     
     49     (1,3069)              0.0000000     
     50     (1,3066)              0.0000000     
     51     (1,3183)              0.0000000     
     52     (1,3182)              0.0000000     
     53     (1,3184)              0.0000000     
     54     (1,3181)              0.0000000     
     55     (1,3262)              0.0000000     
     56     (1,3261)              0.0000000     
     57     (1,3263)              0.0000000     
     58     (1,3330)              0.0000000     
     59     (1,3332)              0.0000000     
     60     (1,3329)              0.0000000     
     61     (1,3410)              0.0000000     
     62     (1,3409)              0.0000000     
     63     (1,3411)              0.0000000     
     64     (1,3408)              0.0000000     
     65     (1,3407)              0.0000000     
     66     (1,3404)              0.0000000     
     67     (1,3403)              0.0000000     
     68     (1,3400)              0.0000000     
     69     (1,3399)              0.0000000     
     70     (1,3396)              0.0000000     
     71     (1,3479)              0.0000000     
     72     (1,3478)              0.0000000     
     73     (1,3475)              0.0000000     
     74     (1,3477)              0.0000000     
     75     (1,3476)              0.0000000     
     76     (1,3473)              0.0000000     
     77     (1,3472)              0.0000000     
     78     (1,3543)              0.0000000     
     79     (1,3540)              0.0000000     
     80     (1,3539)              0.0000000     
     81     (1,3536)              0.0000000     
     82     (1,3535)              0.0000000     
     83     (1,3532)              0.0000000     
     84     (1,3467)              0.0000000     
     85     (1,3466)              0.0000000     
     86     (1,3464)              0.0000000     
     87     (1,3461)              0.0000000     
     88     (1,3387)              0.0000000     
     89     (1,3386)              0.0000000     
     90     (1,3384)              0.0000000     
     91     (1,3381)              0.0000000     
     92     (1,3315)              0.0000000     
     93     (1,3314)              0.0000000     
     94     (1,3312)              0.0000000     
     95     (1,3248)             -8.7306850     
     96     (1,3245)             -96.380375     
     97     (1,3243)             -89.045536     
     98     (1,3140)             -21.656898     
     99     (1,3137)             -41.666041     
    100     (1,3132)             -28.607723     
    101     (1,3012)             -11.143215     
    102     (1,3010)              4.3407049     
    103     (1,3011)             -14.599611     
    104     (1,3017)             -19.689881     
    105     (1,2866)             -13.365453     
    106     (1,2864)              8.8072881     
    107     (1,2865)             -12.093523     
    108     (1,2709)              9.9188377     
    109     (1,2707)             -2.3932420     
    110     (1,2705)             -25.375083     
    111     (1,2606)             -63.726560     
    112     (1,2604)             -62.717474     
    113     (1,2534)             -36.397062     
    114     (1,2532)             -21.480702     
    115     (1,2449)             -2.40321099E-02
    116     (1,2448)              20.541728     
    117     (1,2446)              49.503626     
    118     (1,2353)              18.082771     
    119     (1,2350)             -26.434545     
    120     (1,2348)              13.056694     
    121     (1,2347)              2.7914387     
    122     (1,2271)              0.19817532    
    123     (1,2272)             -9.1302551     
    124     (1,2270)              19.836287     
    125     (1,2273)             -16.593356     
    126     (1,2274)             -47.906162     
    127     (1,2185)              3.5142288     
    128     (1,2188)             -41.413540     
    129     (1,2186)             -142.72300     
    130     (1,2093)             -131.11243     
    131     (1,2090)             -101.54741     
    132     (1,2089)             -63.346353     
    133     (1,2086)             -90.970690     
    134     (1,2085)             -37.965019     
    135     (1,2083)             -50.507724     
    136     (1,2080)             -10.024131     
    137     (1,1971)             -43.873995     
    138     (1,1969)             -37.001191     
    139     (1,1972)             -49.210635     
    140     (1,1973)             -113.23796     
    141     (1,1976)             -56.006015     
    142     (1,1836)             -145.59737     
    143     (1,1831)             -15.324700     
    144     (1,1833)             -72.526118     
    145     (1,1828)             -86.856680     
    146     (1,1684)             -59.857943     
    147     (1,1683)             -98.001597     
    148     (1,1680)             -73.210091     
    149     (1,1679)             -23.449683     
    150     (1,1823)             -48.370965     
    151     (1,1820)             -47.055693     
    152     (1,1822)             -48.244560     
    153     (1,1965)             -44.959446     
    154     (1,1967)             -61.642806     
    155     (1,1966)             -39.569930     
    156     (1,1963)             -46.833303     
    157     (1,1962)             -56.206547     
    158     (1,1960)             -58.816762     
    159     (1,1957)             -57.044365     
    160     (1,1956)             -58.406050     
    161     (1,1953)             -50.593213     
    162     (1,1958)             -72.220583     
    163     (1,1952)             -83.019094     
    164     (1,1951)             -70.803558     
    165     (1,1948)             -58.324020     
    166     (1,1947)             -51.391448     
    167     (1,1944)             -39.104450     
    168     (1,1943)             -30.449783     
    169     (1,1940)             -21.998648     
    170     (1,1939)             -29.727081     
    171     (1,1936)             -14.621743     
    172     (1,1935)             -4.7480452     
    173     (1,1932)              8.2234974     
    174     (1,1930)             -13.797953     
    175     (1,1929)             -8.4056361     
    176     (1,1926)              8.9923250     
    177     (1,1804)              9.6796081     
    178     (1,1803)             -34.585455     
    179     (1,1800)             -8.0691490     
    180     (1,1798)             -5.3524363     
    181     (1,1797)              4.4022964     
    182     (1,1794)              12.673004     
    183     (1,1653)              24.207390     
    184     (1,1651)              34.403269     
    185     (1,1654)             -4.3091124     
    186     (1,1521)              2.9082508     
    187     (1,1519)              12.145005     
    188     (1,1394)              33.816549     
    189     (1,1392)              61.796299     
    190     (1,1266)             -93.442336     
    191     (1,1264)             -118.92277     
    192     (1,1261)             -14.697604     
    193     (1,1153)             -127.18887     
    194     (1,1151)             -82.065632     
    195     (1,1150)             -39.685754     
    196     (1,1063)             -79.828716     
    197     (1,1061)             -73.493079     
    198     (1,968)              -20.417101     
    199     (1,965)              -37.565921     
    200     (1,963)              -56.840868     
    201     (1,960)              -71.744268     
    202     (1,959)              -76.030208     
    203     (1,878)              -42.135255     
    204     (1,875)              -60.325318     
    205     (1,873)              -55.195536     
    206     (1,872)              -35.047216     
    207     (1,794)              -58.564635     
    208     (1,791)              -15.027544     
    209     (1,789)              -62.450442     
    210     (1,712)              -1.0892276     
    211     (1,711)              -44.672644     
    212     (1,709)              -10.333370     
    213     (1,706)              -15.154713     
    214     (1,630)              -43.519151     
    215     (1,629)              -31.862039     
    216     (1,627)              -43.140230     
    217     (1,624)              -9.9226073     
    218     (1,549)              -7.4680897     
    219     (1,547)              -83.347877     
    220     (1,546)              -94.486549     
    221     (1,543)              -1.6443369     
    222     (1,469)              -73.571316     
    223     (1,467)              -70.760722     
    224     (1,394)              -40.171832     
    225     (1,393)              -59.142860     
    226     (1,390)              -42.267056     
    227     (1,389)              -36.787594     
    228     (1,387)              -9.9007930     
    229     (1,384)              -36.851483     
    230     (1,383)              -9.9070470     
    231     (1,302)              -23.782066     
    232     (1,299)              -16.177491     
    233     (1,297)              -3.5018101     
    234     (1,296)              -11.447351     
    235     (1,293)               2.4801701     
    236     (1,292)               13.008272     
    237     (1,289)               4.8796553     
    238     (1,250)               32.625410     
    239     (1,249)               73.560475     
    240     (1,246)              -16.078937     
    241     (1,244)              -40.133283     
    242     (1,243)              -143.80017     
    243     (1,209)              -71.500969     
    244     (1,206)              -101.27889     
    245     (1,204)              -55.405621     
    246     (1,203)              -84.780180     
    247     (1,171)              -49.097695     
    248     (1,168)              -88.542391     
    249     (1,166)              -7.4170610     
    250     (1,165)              -92.930605     
    251     (1,135)              -7.3048544     
    252     (1,132)              -86.139322     
    253     (1,130)              -6.8073926     
    254     (1,129)              -81.935636     
    255     (1,101)              -6.7134911     
    256     (1,98)               -78.591366     
    257     (1,96)               -6.3717970     
    258     (1,95)               -75.563717     
    259     (1,69)               -6.3787215     
    260     (1,66)               -72.046882     
    261     (1,65)               -3.7251681     
    262     (1,63)               -67.859143     
    263     (1,60)               -17.591534     
    264     (1,36)               -121.08487     
    265     (1,35)               -51.636464     
    266     (1,33)               -98.304280     
    267     (1,30)               -93.767566     
    268     (1,8)                -110.44298     
    269     (1,7)                -131.26669     
    270     (1,5)                -22.766254     
 -----------------------------------------------



 UBDSV06 SAVING     FLOW-JA-FACE IN MODEL EXPERIMENTAL     PACKAGE SFR             CONNECTED TO MODEL EXPERIMENTAL     PACKAGE SFR              ON UNIT   1015 AT TIME STEP      1, STRESS PERIOD      1
 UBDSV06 SAVING              GWF IN MODEL EXPERIMENTAL     PACKAGE SFR             CONNECTED TO MODEL EXPERIMENTAL     PACKAGE EXPERIMENTAL     ON UNIT   1015 AT TIME STEP      1, STRESS PERIOD      1
 UBDSV06 SAVING         RAINFALL IN MODEL EXPERIMENTAL     PACKAGE SFR             CONNECTED TO MODEL EXPERIMENTAL     PACKAGE SFR              ON UNIT   1015 AT TIME STEP      1, STRESS PERIOD      1
 UBDSV06 SAVING      EVAPORATION IN MODEL EXPERIMENTAL     PACKAGE SFR             CONNECTED TO MODEL EXPERIMENTAL     PACKAGE SFR              ON UNIT   1015 AT TIME STEP      1, STRESS PERIOD      1
 UBDSV06 SAVING           RUNOFF IN MODEL EXPERIMENTAL     PACKAGE SFR             CONNECTED TO MODEL EXPERIMENTAL     PACKAGE SFR              ON UNIT   1015 AT TIME STEP      1, STRESS PERIOD      1
 UBDSV06 SAVING       EXT-INFLOW IN MODEL EXPERIMENTAL     PACKAGE SFR             CONNECTED TO MODEL EXPERIMENTAL     PACKAGE SFR              ON UNIT   1015 AT TIME STEP      1, STRESS PERIOD      1
 UBDSV06 SAVING      EXT-OUTFLOW IN MODEL EXPERIMENTAL     PACKAGE SFR             CONNECTED TO MODEL EXPERIMENTAL     PACKAGE SFR              ON UNIT   1015 AT TIME STEP      1, STRESS PERIOD      1
 UBDSV06 SAVING          STORAGE IN MODEL EXPERIMENTAL     PACKAGE SFR             CONNECTED TO MODEL EXPERIMENTAL     PACKAGE SFR              ON UNIT   1015 AT TIME STEP      1, STRESS PERIOD      1
1
  HEAD IN LAYER   1 AT END OF TIME STEP   1 IN STRESS PERIOD    1
  ---------------------------------------------------------------------------

                1               2               3               4               5               6               7               8               9              10
               11              12              13              14              15              16              17              18              19              20
               21              22              23              24              25              26              27              28              29              30
               31              32              33              34              35              36              37              38              39              40
               41              42              43              44              45              46              47              48              49              50
               51              52              53              54              55              56              57              58              59              60
               61              62              63              64              65              66              67              68              69              70
               71              72              73              74              75              76              77              78              79              80
               81              82              83              84              85              86              87              88              89              90
               91              92              93              94              95              96              97              98              99             100
              101             102             103             104             105             106             107             108             109             110
              111             112             113             114             115             116             117             118             119             120
              121             122             123             124             125             126             127             128             129             130
              131             132             133             134             135             136             137             138             139             140
              141             142             143             144             145             146             147             148             149             150
              151             152             153             154             155             156             157             158             159             160
              161             162             163             164             165             166             167             168             169             170
              171             172             173             174             175             176             177             178             179             180
              181             182             183             184             185             186             187             188             189             190
              191             192             193             194             195             196             197             198             199             200
              201             202             203             204             205             206             207             208             209             210
              211             212             213             214             215             216             217             218             219             220
              221             222             223             224             225             226             227             228             229             230
              231             232             233             234             235             236             237             238             239             240
              241             242             243             244             245             246             247             248             249             250
              251             252             253             254             255             256             257             258             259             260
              261             262             263             264             265             266             267             268             269             270
              271             272             273             274             275             276             277             278             279             280
              281             282             283             284             285             286             287             288             289             290
              291             292             293             294             295             296             297             298             299             300
              301             302             303             304             305             306             307             308             309             310
              311             312             313             314             315             316             317             318             319             320
              321             322             323             324             325             326             327             328             329             330
              331             332             333             334             335             336             337             338             339             340
              341             342             343             344             345             346             347             348             349             350
              351             352             353             354             355             356             357             358             359             360
              361             362             363             364             365             366             367             368             369             370
              371             372             373             374             375             376             377             378             379             380
              381             382             383             384             385             386             387             388             389             390
              391             392             393             394             395             396             397             398             399             400
              401             402             403             404             405             406             407             408             409             410
              411             412             413             414             415             416             417             418             419             420
              421             422             423             424             425             426             427             428             429             430
              431             432             433             434             435             436             437             438             439             440
              441             442             443             444             445             446             447             448             449             450
              451             452             453             454             455             456             457             458             459             460
              461             462             463             464             465             466             467             468             469             470
              471             472             473             474             475             476             477             478             479             480
              481             482             483             484             485             486             487             488             489             490
              491             492             493             494             495             496             497             498             499             500
              501             502             503             504             505             506             507             508             509             510
              511             512             513             514             515             516             517             518             519             520
              521             522             523             524             525             526             527             528             529             530
              531             532             533             534             535             536             537             538             539             540
              541             542             543             544             545             546             547             548             549             550
              551             552             553             554             555             556             557             558             559             560
              561             562             563             564             565             566             567             568             569             570
              571             572             573             574             575             576             577             578             579             580
              581             582             583             584             585             586             587             588             589             590
              591             592             593             594             595             596             597             598             599             600
              601             602             603             604             605             606             607             608             609             610
              611             612             613             614             615             616             617             618             619             620
              621             622             623             624             625             626             627             628             629             630
              631             632             633             634             635             636             637             638             639             640
              641             642             643             644             645             646             647             648             649             650
              651             652             653             654             655             656             657             658             659             660
              661             662             663             664             665             666             667             668             669             670
              671             672             673             674             675             676             677             678             679             680
              681             682             683             684             685             686             687             688             689             690
              691             692             693             694             695             696             697             698             699             700
              701             702             703             704             705             706             707             708             709             710
              711             712             713             714             715             716             717             718             719             720
              721             722             723             724             725             726             727             728             729             730
              731             732             733             734             735             736             737             738             739             740
              741             742             743             744             745             746             747             748             749             750
              751             752             753             754             755             756             757             758             759             760
              761             762             763             764             765             766             767             768             769             770
              771             772             773             774             775             776             777             778             779             780
              781             782             783             784             785             786             787             788             789             790
              791             792             793             794             795             796             797             798             799             800
              801             802             803             804             805             806             807             808             809             810
              811             812             813             814             815             816             817             818             819             820
              821             822             823             824             825             826             827             828             829             830
              831             832             833             834             835             836             837             838             839             840
              841             842             843             844             845             846             847             848             849             850
              851             852             853             854             855             856             857             858             859             860
              861             862             863             864             865             866             867             868             869             870
              871             872             873             874             875             876             877             878             879             880
              881             882             883             884             885             886             887             888             889             890
              891             892             893             894             895             896             897             898             899             900
              901             902             903             904             905             906             907             908             909             910
              911             912             913             914             915             916             917             918             919             920
              921             922             923             924             925             926             927             928             929             930
              931             932             933             934             935             936             937             938             939             940
              941             942             943             944             945             946             947             948             949             950
              951             952             953             954             955             956             957             958             959             960
              961             962             963             964             965             966             967             968             969             970
              971             972             973             974             975             976             977             978             979             980
              981             982             983             984             985             986             987             988             989             990
              991             992             993             994             995             996             997             998             999            1000
             1001            1002            1003            1004            1005            1006            1007            1008            1009            1010
             1011            1012            1013            1014            1015            1016            1017            1018            1019            1020
             1021            1022            1023            1024            1025            1026            1027            1028            1029            1030
             1031            1032            1033            1034            1035            1036            1037            1038            1039            1040
             1041            1042            1043            1044            1045            1046            1047            1048            1049            1050
             1051            1052            1053            1054            1055            1056            1057            1058            1059            1060
             1061            1062            1063            1064            1065            1066            1067            1068            1069            1070
             1071            1072            1073            1074            1075            1076            1077            1078            1079            1080
             1081            1082            1083            1084            1085            1086            1087            1088            1089            1090
             1091            1092            1093            1094            1095            1096            1097            1098            1099            1100
             1101            1102            1103            1104            1105            1106            1107            1108            1109            1110
             1111            1112            1113            1114            1115            1116            1117            1118            1119            1120
             1121            1122            1123            1124            1125            1126            1127            1128            1129            1130
             1131            1132            1133            1134            1135            1136            1137            1138            1139            1140
             1141            1142            1143            1144            1145            1146            1147            1148            1149            1150
             1151            1152            1153            1154            1155            1156            1157            1158            1159            1160
             1161            1162            1163            1164            1165            1166            1167            1168            1169            1170
             1171            1172            1173            1174            1175            1176            1177            1178            1179            1180
             1181            1182            1183            1184            1185            1186            1187            1188            1189            1190
             1191            1192            1193            1194            1195            1196            1197            1198            1199            1200
             1201            1202            1203            1204            1205            1206            1207            1208            1209            1210
             1211            1212            1213            1214            1215            1216            1217            1218            1219            1220
             1221            1222            1223            1224            1225            1226            1227            1228            1229            1230
             1231            1232            1233            1234            1235            1236            1237            1238            1239            1240
             1241            1242            1243            1244            1245            1246            1247            1248            1249            1250
             1251            1252            1253            1254            1255            1256            1257            1258            1259            1260
             1261            1262            1263            1264            1265            1266            1267            1268            1269            1270
             1271            1272            1273            1274            1275            1276            1277            1278            1279            1280
             1281            1282            1283            1284            1285            1286            1287            1288            1289            1290
             1291            1292            1293            1294            1295            1296            1297            1298            1299            1300
             1301            1302            1303            1304            1305            1306            1307            1308            1309            1310
             1311            1312            1313            1314            1315            1316            1317            1318            1319            1320
             1321            1322            1323            1324            1325            1326            1327            1328            1329            1330
             1331            1332            1333            1334            1335            1336            1337            1338            1339            1340
             1341            1342            1343            1344            1345            1346            1347            1348            1349            1350
             1351            1352            1353            1354            1355            1356            1357            1358            1359            1360
             1361            1362            1363            1364            1365            1366            1367            1368            1369            1370
             1371            1372            1373            1374            1375            1376            1377            1378            1379            1380
             1381            1382            1383            1384            1385            1386            1387            1388            1389            1390
             1391            1392            1393            1394            1395            1396            1397            1398            1399            1400
             1401            1402            1403            1404            1405            1406            1407            1408            1409            1410
             1411            1412            1413            1414            1415            1416            1417            1418            1419            1420
             1421            1422            1423            1424            1425            1426            1427            1428            1429            1430
             1431            1432            1433            1434            1435            1436            1437            1438            1439            1440
             1441            1442            1443            1444            1445            1446            1447            1448            1449            1450
             1451            1452            1453            1454            1455            1456            1457            1458            1459            1460
             1461            1462            1463            1464            1465            1466            1467            1468            1469            1470
             1471            1472            1473            1474            1475            1476            1477            1478            1479            1480
             1481            1482            1483            1484            1485            1486            1487            1488            1489            1490
             1491            1492            1493            1494            1495            1496            1497            1498            1499            1500
             1501            1502            1503            1504            1505            1506            1507            1508            1509            1510
             1511            1512            1513            1514            1515            1516            1517            1518            1519            1520
             1521            1522            1523            1524            1525            1526            1527            1528            1529            1530
             1531            1532            1533            1534            1535            1536            1537            1538            1539            1540
             1541            1542            1543            1544            1545            1546            1547            1548            1549            1550
             1551            1552            1553            1554            1555            1556            1557            1558            1559            1560
             1561            1562            1563            1564            1565            1566            1567            1568            1569            1570
             1571            1572            1573            1574            1575            1576            1577            1578            1579            1580
             1581            1582            1583            1584            1585            1586            1587            1588            1589            1590
             1591            1592            1593            1594            1595            1596            1597            1598            1599            1600
             1601            1602            1603            1604            1605            1606            1607            1608            1609            1610
             1611            1612            1613            1614            1615            1616            1617            1618            1619            1620
             1621            1622            1623            1624            1625            1626            1627            1628            1629            1630
             1631            1632            1633            1634            1635            1636            1637            1638            1639            1640
             1641            1642            1643            1644            1645            1646            1647            1648            1649            1650
             1651            1652            1653            1654            1655            1656            1657            1658            1659            1660
             1661            1662            1663            1664            1665            1666            1667            1668            1669            1670
             1671            1672            1673            1674            1675            1676            1677            1678            1679            1680
             1681            1682            1683            1684            1685            1686            1687            1688            1689            1690
             1691            1692            1693            1694            1695            1696            1697            1698            1699            1700
             1701            1702            1703            1704            1705            1706            1707            1708            1709            1710
             1711            1712            1713            1714            1715            1716            1717            1718            1719            1720
             1721            1722            1723            1724            1725            1726            1727            1728            1729            1730
             1731            1732            1733            1734            1735            1736            1737            1738            1739            1740
             1741            1742            1743            1744            1745            1746            1747            1748            1749            1750
             1751            1752            1753            1754            1755            1756            1757            1758            1759            1760
             1761            1762            1763            1764            1765            1766            1767            1768            1769            1770
             1771            1772            1773            1774            1775            1776            1777            1778            1779            1780
             1781            1782            1783            1784            1785            1786            1787            1788            1789            1790
             1791            1792            1793            1794            1795            1796            1797            1798            1799            1800
             1801            1802            1803            1804            1805            1806            1807            1808            1809            1810
             1811            1812            1813            1814            1815            1816            1817            1818            1819            1820
             1821            1822            1823            1824            1825            1826            1827            1828            1829            1830
             1831            1832            1833            1834            1835            1836            1837            1838            1839            1840
             1841            1842            1843            1844            1845            1846            1847            1848            1849            1850
             1851            1852            1853            1854            1855            1856            1857            1858            1859            1860
             1861            1862            1863            1864            1865            1866            1867            1868            1869            1870
             1871            1872            1873            1874            1875            1876            1877            1878            1879            1880
             1881            1882            1883            1884            1885            1886            1887            1888            1889            1890
             1891            1892            1893            1894            1895            1896            1897            1898            1899            1900
             1901            1902            1903            1904            1905            1906            1907            1908            1909            1910
             1911            1912            1913            1914            1915            1916            1917            1918            1919            1920
             1921            1922            1923            1924            1925            1926            1927            1928            1929            1930
             1931            1932            1933            1934            1935            1936            1937            1938            1939            1940
             1941            1942            1943            1944            1945            1946            1947            1948            1949            1950
             1951            1952            1953            1954            1955            1956            1957            1958            1959            1960
             1961            1962            1963            1964            1965            1966            1967            1968            1969            1970
             1971            1972            1973            1974            1975            1976            1977            1978            1979            1980
             1981            1982            1983            1984            1985            1986            1987            1988            1989            1990
             1991            1992            1993            1994            1995            1996            1997            1998            1999            2000
             2001            2002            2003            2004            2005            2006            2007            2008            2009            2010
             2011            2012            2013            2014            2015            2016            2017            2018            2019            2020
             2021            2022            2023            2024            2025            2026            2027            2028            2029            2030
             2031            2032            2033            2034            2035            2036            2037            2038            2039            2040
             2041            2042            2043            2044            2045            2046            2047            2048            2049            2050
             2051            2052            2053            2054            2055            2056            2057            2058            2059            2060
             2061            2062            2063            2064            2065            2066            2067            2068            2069            2070
             2071            2072            2073            2074            2075            2076            2077            2078            2079            2080
             2081            2082            2083            2084            2085            2086            2087            2088            2089            2090
             2091            2092            2093            2094            2095            2096            2097            2098            2099            2100
             2101            2102            2103            2104            2105            2106            2107            2108            2109            2110
             2111            2112            2113            2114            2115            2116            2117            2118            2119            2120
             2121            2122            2123            2124            2125            2126            2127            2128            2129            2130
             2131            2132            2133            2134            2135            2136            2137            2138            2139            2140
             2141            2142            2143            2144            2145            2146            2147            2148            2149            2150
             2151            2152            2153            2154            2155            2156            2157            2158            2159            2160
             2161            2162            2163            2164            2165            2166            2167            2168            2169            2170
             2171            2172            2173            2174            2175            2176            2177            2178            2179            2180
             2181            2182            2183            2184            2185            2186            2187            2188            2189            2190
             2191            2192            2193            2194            2195            2196            2197            2198            2199            2200
             2201            2202            2203            2204            2205            2206            2207            2208            2209            2210
             2211            2212            2213            2214            2215            2216            2217            2218            2219            2220
             2221            2222            2223            2224            2225            2226            2227            2228            2229            2230
             2231            2232            2233            2234            2235            2236            2237            2238            2239            2240
             2241            2242            2243            2244            2245            2246            2247            2248            2249            2250
             2251            2252            2253            2254            2255            2256            2257            2258            2259            2260
             2261            2262            2263            2264            2265            2266            2267            2268            2269            2270
             2271            2272            2273            2274            2275            2276            2277            2278            2279            2280
             2281            2282            2283            2284            2285            2286            2287            2288            2289            2290
             2291            2292            2293            2294            2295            2296            2297            2298            2299            2300
             2301            2302            2303            2304            2305            2306            2307            2308            2309            2310
             2311            2312            2313            2314            2315            2316            2317            2318            2319            2320
             2321            2322            2323            2324            2325            2326            2327            2328            2329            2330
             2331            2332            2333            2334            2335            2336            2337            2338            2339            2340
             2341            2342            2343            2344            2345            2346            2347            2348            2349            2350
             2351            2352            2353            2354            2355            2356            2357            2358            2359            2360
             2361            2362            2363            2364            2365            2366            2367            2368            2369            2370
             2371            2372            2373            2374            2375            2376            2377            2378            2379            2380
             2381            2382            2383            2384            2385            2386            2387            2388            2389            2390
             2391            2392            2393            2394            2395            2396            2397            2398            2399            2400
             2401            2402            2403            2404            2405            2406            2407            2408            2409            2410
             2411            2412            2413            2414            2415            2416            2417            2418            2419            2420
             2421            2422            2423            2424            2425            2426            2427            2428            2429            2430
             2431            2432            2433            2434            2435            2436            2437            2438            2439            2440
             2441            2442            2443            2444            2445            2446            2447            2448            2449            2450
             2451            2452            2453            2454            2455            2456            2457            2458            2459            2460
             2461            2462            2463            2464            2465            2466            2467            2468            2469            2470
             2471            2472            2473            2474            2475            2476            2477            2478            2479            2480
             2481            2482            2483            2484            2485            2486            2487            2488            2489            2490
             2491            2492            2493            2494            2495            2496            2497            2498            2499            2500
             2501            2502            2503            2504            2505            2506            2507            2508            2509            2510
             2511            2512            2513            2514            2515            2516            2517            2518            2519            2520
             2521            2522            2523            2524            2525            2526            2527            2528            2529            2530
             2531            2532            2533            2534            2535            2536            2537            2538            2539            2540
             2541            2542            2543            2544            2545            2546            2547            2548            2549            2550
             2551            2552            2553            2554            2555            2556            2557            2558            2559            2560
             2561            2562            2563            2564            2565            2566            2567            2568            2569            2570
             2571            2572            2573            2574            2575            2576            2577            2578            2579            2580
             2581            2582            2583            2584            2585            2586            2587            2588            2589            2590
             2591            2592            2593            2594            2595            2596            2597            2598            2599            2600
             2601            2602            2603            2604            2605            2606            2607            2608            2609            2610
             2611            2612            2613            2614            2615            2616            2617            2618            2619            2620
             2621            2622            2623            2624            2625            2626            2627            2628            2629            2630
             2631            2632            2633            2634            2635            2636            2637            2638            2639            2640
             2641            2642            2643            2644            2645            2646            2647            2648            2649            2650
             2651            2652            2653            2654            2655            2656            2657            2658            2659            2660
             2661            2662            2663            2664            2665            2666            2667            2668            2669            2670
             2671            2672            2673            2674            2675            2676            2677            2678            2679            2680
             2681            2682            2683            2684            2685            2686            2687            2688            2689            2690
             2691            2692            2693            2694            2695            2696            2697            2698            2699            2700
             2701            2702            2703            2704            2705            2706            2707            2708            2709            2710
             2711            2712            2713            2714            2715            2716            2717            2718            2719            2720
             2721            2722            2723            2724            2725            2726            2727            2728            2729            2730
             2731            2732            2733            2734            2735            2736            2737            2738            2739            2740
             2741            2742            2743            2744            2745            2746            2747            2748            2749            2750
             2751            2752            2753            2754            2755            2756            2757            2758            2759            2760
             2761            2762            2763            2764            2765            2766            2767            2768            2769            2770
             2771            2772            2773            2774            2775            2776            2777            2778            2779            2780
             2781            2782            2783            2784            2785            2786            2787            2788            2789            2790
             2791            2792            2793            2794            2795            2796            2797            2798            2799            2800
             2801            2802            2803            2804            2805            2806            2807            2808            2809            2810
             2811            2812            2813            2814            2815            2816            2817            2818            2819            2820
             2821            2822            2823            2824            2825            2826            2827            2828            2829            2830
             2831            2832            2833            2834            2835            2836            2837            2838            2839            2840
             2841            2842            2843            2844            2845            2846            2847            2848            2849            2850
             2851            2852            2853            2854            2855            2856            2857            2858            2859            2860
             2861            2862            2863            2864            2865            2866            2867            2868            2869            2870
             2871            2872            2873            2874            2875            2876            2877            2878            2879            2880
             2881            2882            2883            2884            2885            2886            2887            2888            2889            2890
             2891            2892            2893            2894            2895            2896            2897            2898            2899            2900
             2901            2902            2903            2904            2905            2906            2907            2908            2909            2910
             2911            2912            2913            2914            2915            2916            2917            2918            2919            2920
             2921            2922            2923            2924            2925            2926            2927            2928            2929            2930
             2931            2932            2933            2934            2935            2936            2937            2938            2939            2940
             2941            2942            2943            2944            2945            2946            2947            2948            2949            2950
             2951            2952            2953            2954            2955            2956            2957            2958            2959            2960
             2961            2962            2963            2964            2965            2966            2967            2968            2969            2970
             2971            2972            2973            2974            2975            2976            2977            2978            2979            2980
             2981            2982            2983            2984            2985            2986            2987            2988            2989            2990
             2991            2992            2993            2994            2995            2996            2997            2998            2999            3000
             3001            3002            3003            3004            3005            3006            3007            3008            3009            3010
             3011            3012            3013            3014            3015            3016            3017            3018            3019            3020
             3021            3022            3023            3024            3025            3026            3027            3028            3029            3030
             3031            3032            3033            3034            3035            3036            3037            3038            3039            3040
             3041            3042            3043            3044            3045            3046            3047            3048            3049            3050
             3051            3052            3053            3054            3055            3056            3057            3058            3059            3060
             3061            3062            3063            3064            3065            3066            3067            3068            3069            3070
             3071            3072            3073            3074            3075            3076            3077            3078            3079            3080
             3081            3082            3083            3084            3085            3086            3087            3088            3089            3090
             3091            3092            3093            3094            3095            3096            3097            3098            3099            3100
             3101            3102            3103            3104            3105            3106            3107            3108            3109            3110
             3111            3112            3113            3114            3115            3116            3117            3118            3119            3120
             3121            3122            3123            3124            3125            3126            3127            3128            3129            3130
             3131            3132            3133            3134            3135            3136            3137            3138            3139            3140
             3141            3142            3143            3144            3145            3146            3147            3148            3149            3150
             3151            3152            3153            3154            3155            3156            3157            3158            3159            3160
             3161            3162            3163            3164            3165            3166            3167            3168            3169            3170
             3171            3172            3173            3174            3175            3176            3177            3178            3179            3180
             3181            3182            3183            3184            3185            3186            3187            3188            3189            3190
             3191            3192            3193            3194            3195            3196            3197            3198            3199            3200
             3201            3202            3203            3204            3205            3206            3207            3208            3209            3210
             3211            3212            3213            3214            3215            3216            3217            3218            3219            3220
             3221            3222            3223            3224            3225            3226            3227            3228            3229            3230
             3231            3232            3233            3234            3235            3236            3237            3238            3239            3240
             3241            3242            3243            3244            3245            3246            3247            3248            3249            3250
             3251            3252            3253            3254            3255            3256            3257            3258            3259            3260
             3261            3262            3263            3264            3265            3266            3267            3268            3269            3270
             3271            3272            3273            3274            3275            3276            3277            3278            3279            3280
             3281            3282            3283            3284            3285            3286            3287            3288            3289            3290
             3291            3292            3293            3294            3295            3296            3297            3298            3299            3300
             3301            3302            3303            3304            3305            3306            3307            3308            3309            3310
             3311            3312            3313            3314            3315            3316            3317            3318            3319            3320
             3321            3322            3323            3324            3325            3326            3327            3328            3329            3330
             3331            3332            3333            3334            3335            3336            3337            3338            3339            3340
             3341            3342            3343            3344            3345            3346            3347            3348            3349            3350
             3351            3352            3353            3354            3355            3356            3357            3358            3359            3360
             3361            3362            3363            3364            3365            3366            3367            3368            3369            3370
             3371            3372            3373            3374            3375            3376            3377            3378            3379            3380
             3381            3382            3383            3384            3385            3386            3387            3388            3389            3390
             3391            3392            3393            3394            3395            3396            3397            3398            3399            3400
             3401            3402            3403            3404            3405            3406            3407            3408            3409            3410
             3411            3412            3413            3414            3415            3416            3417            3418            3419            3420
             3421            3422            3423            3424            3425            3426            3427            3428            3429            3430
             3431            3432            3433            3434            3435            3436            3437            3438            3439            3440
             3441            3442            3443            3444            3445            3446            3447            3448            3449            3450
             3451            3452            3453            3454            3455            3456            3457            3458            3459            3460
             3461            3462            3463            3464            3465            3466            3467            3468            3469            3470
             3471            3472            3473            3474            3475            3476            3477            3478            3479            3480
             3481            3482            3483            3484            3485            3486            3487            3488            3489            3490
             3491            3492            3493            3494            3495            3496            3497            3498            3499            3500
             3501            3502            3503            3504            3505            3506            3507            3508            3509            3510
             3511            3512            3513            3514            3515            3516            3517            3518            3519            3520
             3521            3522            3523            3524            3525            3526            3527            3528            3529            3530
             3531            3532            3533            3534            3535            3536            3537            3538            3539            3540
             3541            3542            3543            3544            3545            3546            3547            3548            3549            3550
             3551            3552            3553            3554            3555            3556            3557            3558            3559            3560
             3561            3562            3563            3564            3565            3566            3567            3568            3569            3570
             3571            3572            3573            3574            3575            3576            3577            3578            3579            3580
             3581            3582            3583            3584            3585            3586            3587            3588            3589            3590
             3591            3592            3593            3594            3595            3596            3597            3598            3599            3600
             3601            3602            3603            3604            3605            3606            3607            3608            3609            3610
             3611            3612            3613            3614            3615            3616            3617            3618            3619            3620
             3621            3622            3623            3624            3625            3626            3627            3628            3629            3630
             3631            3632            3633            3634            3635            3636            3637            3638            3639            3640
             3641            3642            3643            3644            3645            3646            3647            3648            3649            3650
             3651            3652            3653            3654            3655            3656            3657            3658            3659            3660
             3661            3662            3663            3664            3665            3666            3667            3668            3669            3670
             3671            3672            3673            3674            3675            3676            3677            3678            3679            3680
             3681            3682            3683            3684            3685            3686            3687            3688            3689            3690
             3691            3692            3693            3694            3695            3696            3697            3698            3699            3700
             3701            3702            3703            3704            3705            3706            3707            3708            3709            3710
             3711            3712            3713            3714            3715            3716            3717            3718            3719            3720
             3721            3722            3723            3724            3725            3726            3727            3728            3729            3730
             3731            3732            3733            3734            3735            3736            3737            3738            3739            3740
             3741            3742            3743            3744            3745            3746            3747            3748            3749            3750
             3751            3752            3753            3754            3755            3756            3757            3758            3759            3760
             3761            3762            3763            3764            3765            3766            3767            3768            3769            3770
             3771            3772            3773            3774            3775            3776            3777            3778            3779            3780
             3781            3782            3783
 ................................................................................................................................................................
   1      133.790         133.777         133.743         133.670         133.619         133.611         133.495         133.474         133.594         133.683    
          133.760         133.828         133.891         133.952         134.009         134.064         134.119         134.176         134.233         134.283    
          134.331         134.377         134.413         133.701         133.723         133.715         133.683         133.618         133.512         133.433    
          133.534         133.484         133.423         133.482         133.428         133.412         133.559         133.654         133.733         133.805    
          133.874         133.941         134.006         134.069         134.133         134.197         134.256         134.314         134.373         134.442    
          134.549         133.668         133.682         133.689         133.681         133.657         133.614         133.551         133.488         133.462    
          133.519         133.503         133.465         133.513         133.487         133.471         133.568         133.603         133.521         133.570    
          133.652         133.732         133.809         133.884         133.958         134.028         134.096         134.165         134.232         134.298    
          134.366         134.440         134.527         134.621         133.655         133.663         133.671         133.673         133.667         133.650    
          133.623         133.588         133.555         133.522         133.474         133.520         133.498         133.475         133.571         133.607    
          133.525         133.574         133.660         133.746         133.831         133.913         133.992         134.065         134.138         134.208    
          134.280         134.354         134.430         134.512         134.600         134.693         133.646         133.653         133.660         133.665    
          133.666         133.662         133.652         133.635         133.615         133.593         133.569         133.532         133.477         133.526    
          133.506         133.480         133.580         133.618         133.533         133.585         133.677         133.776         133.872         133.959    
          134.036         134.114         134.186         134.260         134.337         134.417         134.500         134.589         134.679         134.770    
          133.635         133.643         133.651         133.657         133.663         133.665         133.664         133.659         133.650         133.638    
          133.624         133.608         133.585         133.546         133.484         133.534         133.519         133.490         133.588         133.636    
          133.525         133.597         133.716         133.836         133.932         134.011         134.089         134.163         134.238         134.318    
          134.400         134.489         134.581         134.672         134.766         134.862         133.622         133.631         133.640         133.649    
          133.657         133.663         133.667         133.669         133.668         133.665         133.660         133.652         133.643         133.630    
          133.609         133.573         133.505         133.538         133.554         133.523         133.628         133.701         133.576         133.685    
          133.816         133.917         133.990         134.065         134.137         134.212         134.294         134.381         134.474         134.573    
          134.671         134.771         134.876         134.984         133.600         133.614         133.626         133.638         133.648         133.658    
          133.666         133.672         133.677         133.680         133.681         133.681         133.679         133.677         133.673         133.667    
          133.658         133.642         133.579         133.687         133.686         133.746         133.808         133.858         133.860         133.895    
          133.922         133.974         134.037         134.104         134.179         134.264         134.357         134.457         134.562         134.668    
          134.778         134.897         135.025         135.166         133.554         133.586         133.606         133.619         133.626         133.617    
          133.625         133.636         133.649         133.660         133.670         133.678         133.686         133.692         133.697         133.702    
          133.706         133.710         133.715         133.721         133.730         133.751         133.797         133.857         133.893         133.861    
          133.891         133.922         133.934         133.918         133.934         133.949         133.966         133.948         133.954         133.995    
          134.017         133.970         134.000         134.059         134.131         134.223         134.327         134.437         134.548         134.661    
          134.781         134.913         135.065         135.267         135.599         135.821         135.990         136.122         136.235         136.336    
          136.429         136.516         136.596         136.673         136.750         136.827         136.906         136.983         137.060         137.138    
          137.220         137.295         137.367         137.436         137.503         137.567         137.635         137.781         137.949         138.053    
          138.126         138.212         138.358         138.506         138.586         138.764         138.951         139.114         139.270         139.527    
          133.551         133.580         133.599         133.607         133.597         133.605         133.614         133.618         133.614         133.617    
          133.624         133.615         133.623         133.635         133.650         133.663         133.675         133.686         133.696         133.705    
          133.714         133.722         133.731         133.740         133.751         133.765         133.782         133.808         133.847         133.892    
          133.933         133.960         133.966         133.971         133.975         133.979         133.997         134.019         133.975         133.982    
          134.052         134.085         133.997         134.036         134.163         134.290         134.410         134.528         134.647         134.774    
          134.913         135.066         135.249         135.473         135.666         135.832         135.970         136.090         136.196         136.293    
          136.384         136.472         136.557         136.636         136.719         136.801         136.884         136.967         137.053         137.142    
          137.230         137.319         137.411         137.505         137.603         137.726         137.861         137.999         138.125         138.238    
          138.351         138.488         138.629         138.836         138.976         139.176         139.394         139.640         140.081         140.795    
          133.550         133.577         133.600         133.619         133.636         133.652         133.667         133.681         133.694         133.706    
          133.718         133.730         133.742         133.754         133.767         133.782         133.800         133.822         133.849         133.881    
          133.917         133.951         133.979         133.998         134.009         134.007         134.001         134.016         134.001         134.100    
          134.247         134.380         134.502         134.626         134.759         134.897         135.043         135.210         135.388         135.555    
          135.714         135.852         135.975         136.087         136.189         136.283         136.375         136.463         136.547         136.632    
          136.719         136.807         136.895         136.988         137.087         137.188         137.286         137.398         137.503         137.613    
          137.746         137.882         138.011         138.153         138.278         138.401         138.540         138.691         138.919         139.075    
          139.292         139.516         139.783         140.169         140.642         141.100         133.549         133.576         133.600         133.620    
          133.638         133.655         133.671         133.687         133.702         133.717         133.731         133.745         133.760         133.775    
          133.792         133.810         133.831         133.854         133.881         133.911         133.942         133.974         134.002         134.026    
          134.045         134.041         134.036         134.062         134.067         134.026         134.061         134.078         134.106         134.199    
          134.344         134.469         134.601         134.735         134.870         135.008         135.164         135.323         135.475         135.624    
          135.758         135.882         135.996         136.100         136.197         136.291         136.382         136.470         136.560         136.650    
          136.744         136.839         136.938         137.046         137.158         137.260         137.388         137.500         137.623         137.756    
          137.895         138.025         138.173         138.305         138.430         138.570         138.775         138.974         139.129         139.376    
          139.588         139.843         140.180         140.536         140.922         141.319         133.549         133.577         133.601         133.622    
          133.642         133.660         133.677         133.694         133.710         133.727         133.744         133.760         133.777         133.795    
          133.814         133.834         133.856         133.881         133.908         133.937         133.967         133.997         134.026         134.054    
          134.079         134.102         134.111         134.125         134.130         134.142         134.148         134.200         134.152         134.186    
          134.300         134.434         134.570         134.702         134.830         134.968         135.123         135.269         135.413         135.550    
          135.682         135.804         135.919         136.023         136.122         136.218         136.311         136.405         136.498         136.593    
          136.690         136.791         136.898         137.011         137.136         137.240         137.372         137.507         137.629         137.763    
          137.903         138.030         138.174         138.345         138.457         138.636         138.827         139.016         139.175         139.414    
          139.625         139.868         140.154         140.466         140.795         141.138         141.486         133.550         133.579         133.603    
          133.625         133.645         133.664         133.683         133.701         133.719         133.737         133.756         133.774         133.793    
          133.813         133.834         133.856         133.879         133.905         133.932         133.961         133.991         134.021         134.051    
          134.080         134.109         134.138         134.168         134.182         134.202         134.196         134.211         134.247         134.293    
          134.224         134.275         134.380         134.522         134.657         134.782         134.936         135.083         135.223         135.360    
          135.491         135.617         135.738         135.851         135.955         136.054         136.152         136.248         136.344         136.442    
          136.542         136.644         136.750         136.862         136.982         137.112         137.223         137.361         137.509         137.633    
          137.773         137.901         138.035         138.197         138.380         138.488         138.662         138.858         139.045         139.209    
          139.437         139.642         139.869         140.125         140.404         140.696         140.993         141.299         141.610         133.552    
          133.581         133.606         133.628         133.649         133.669         133.689         133.708         133.728         133.747         133.766    
          133.787         133.808         133.829         133.852         133.875         133.900         133.927         133.955         133.984         134.014    
          134.044         134.075         134.107         134.137         134.168         134.198         134.225         134.235         134.240         134.242    
          134.243         134.299         134.354         134.254         134.323         134.450         134.596         134.733         134.898         135.045    
          135.184         135.314         135.441         135.562         135.681         135.790         135.894         135.994         136.092         136.191    
          136.290         136.392         136.497         136.604         136.715         136.832         136.957         137.090         137.212         137.354    
          137.503         137.637         137.775         137.906         138.038         138.213         138.386         138.543         138.706         138.877    
          139.061         139.245         139.445         139.648         139.860         140.095         140.347         140.613         140.882         141.147    
          141.422         141.697         133.555         133.584         133.609         133.632         133.654         133.675         133.695         133.716    
          133.736         133.757         133.777         133.799         133.822         133.845         133.869         133.894         133.920         133.947    
          133.975         134.005         134.036         134.067         134.100         134.131         134.164         134.196         134.226         134.252    
          134.265         134.250         134.272         134.267         134.256         134.355         134.417         134.299         134.379         134.526    
          134.688         134.847         135.008         135.148         135.276         135.399         135.516         135.628         135.736         135.838    
          135.938         136.037         136.137         136.240         136.347         136.456         136.569         136.686         136.808         136.938    
          137.072         137.204         137.349         137.498         137.638         137.775         137.912         138.045         138.234         138.411    
          138.571         138.735         138.911         139.082         139.262         139.445         139.647         139.849         140.064         140.297    
          140.545         140.798         141.018         141.119         140.972         141.090         141.319         141.673         133.557         133.586    
          133.612         133.636         133.658         133.680         133.701         133.723         133.744         133.766         133.788         133.810    
          133.835         133.860         133.885         133.911         133.938         133.966         133.995         134.026         134.057         134.090    
          134.123         134.157         134.191         134.224         134.256         134.283         134.302         134.304         134.269         134.309    
          134.310         134.305         134.287         134.314         134.303         134.425         134.510         134.375         134.487         134.647    
          134.786         134.850         134.769         134.844         134.968         135.116         135.244         135.363         135.474         135.581    
          135.686         135.785         135.885         135.984         136.086         136.192         136.303         136.418         136.537         136.662    
          136.789         136.923         137.062         137.200         137.347         137.495         137.637         137.778         137.920         138.074    
          138.253         138.427         138.595         138.763         138.933         139.104         139.268         139.447         139.641         139.835    
          140.037         140.254         140.489         140.698         140.793         140.669         140.760         140.912         140.963         140.897    
          140.949         141.048         140.903         141.012         141.253         141.644         133.560         133.590         133.616         133.640    
          133.663         133.685         133.707         133.730         133.752         133.775         133.798         133.821         133.846         133.873    
          133.899         133.926         133.954         133.984         134.014         134.046         134.079         134.112         134.147         134.183    
          134.218         134.253         134.287         134.318         134.343         134.358         134.347         134.343         134.370         134.367    
          134.348         134.463         134.345         134.442         134.612         134.755         134.822         134.854         134.818         134.851    
          134.744         134.827         134.919         134.975         134.908         134.973         135.087         135.215         135.330         135.436    
          135.538         135.636         135.733         135.833         135.932         136.035         136.145         136.260         136.382         136.508    
          136.640         136.773         136.912         137.056         137.200         137.347         137.495         137.637         137.790         137.936    
          138.093         138.266         138.448         138.617         138.785         138.953         139.115         139.276         139.450         139.633    
          139.820         140.013         140.215         140.436         140.667         140.914         141.212         141.620         133.563         133.593    
          133.619         133.644         133.667         133.689         133.712         133.736         133.759         133.783         133.807         133.832    
          133.857         133.884         133.913         133.941         133.970         134.001         134.033         134.066         134.100         134.135    
          134.171         134.209         134.246         134.282         134.320         134.356         134.390         134.416         134.422         134.373    
          134.392         134.420         134.388         134.581         134.735         134.805         134.840         134.801         134.841         134.735    
          134.801         134.840         134.805         134.839         134.899         134.968         134.897         134.965         135.047         135.095    
          135.039         135.094         135.192         135.302         135.401         135.496         135.589         135.682         135.776         135.875    
          135.980         136.093         136.216         136.346         136.481         136.619         136.760         136.904         137.052         137.205    
          137.352         137.500         137.643         137.800         137.953         138.110         138.284         138.471         138.633         138.761    
          138.835         138.765         138.848         138.966         139.122         139.284         139.420         139.488         139.418         139.478    
          139.509         139.480         139.511         139.589         139.661         139.582         139.664         139.806         139.991         140.183    
          140.392         140.617         140.863         141.168         141.602         133.566         133.597         133.623         133.647         133.670    
          133.693         133.717         133.741         133.766         133.790         133.816         133.842         133.869         133.896         133.917    
          133.928         133.921         133.934         133.954         133.985         134.017         134.051         134.085         134.121         134.158    
          134.196         134.235         134.273         134.313         134.355         134.400         134.440         134.480         134.511         134.489    
          134.479         134.545         134.555         134.497         134.634         134.567         134.685         134.745         134.828         134.774    
          134.839         134.885         134.913         134.887         134.916         134.968         134.909         134.972         135.024         135.046    
          135.023         135.045         135.089         135.034         135.086         135.159         135.200         135.151         135.197         135.277    
          135.369         135.457         135.544         135.629         135.716         135.811         135.917         136.036         136.170         136.311    
          136.455         136.602         136.751         136.903         137.057         137.178         137.239         137.176         137.246         137.359    
          137.507         137.658         137.811         137.968         138.127         138.299         138.482         138.651         138.775         138.837    
          138.871         138.839         138.873         138.786         138.857         138.938         139.006         138.946         139.011         139.127    
          139.286         139.417         139.499         139.418         139.500         139.567         139.600         139.568         139.601         139.665    
          139.586         139.665         139.794         139.975         140.158         140.357         140.577         140.819         141.127         141.580    
          133.569         133.603         133.627         133.649         133.672         133.696         133.721         133.746         133.771         133.797    
          133.823         133.851         133.879         133.899         133.910         133.903         133.915         133.922         133.927         133.924    
          133.930         133.940         133.932         133.944         133.967         134.000         134.033         134.068         134.104         134.142    
          134.181         134.220         134.259         134.301         134.345         134.393         134.441         134.490         134.542         134.595    
          134.660         134.727         134.757         134.769         134.795         134.848         134.926         134.967         134.989         134.970    
          134.991         134.935         134.986         135.034         135.085         135.036         135.084         135.137         135.155         135.136    
          135.154         135.189         135.143         135.182         135.255         135.336         135.411         135.491         135.571         135.652    
          135.741         135.843         135.969         136.114         136.275         136.433         136.590         136.748         136.909         137.035    
          137.097         137.039         137.101         137.162         137.192         137.164         137.195         137.249         137.188         137.251    
          137.333         137.397         137.318         137.349         137.321         137.352         137.407         137.519         137.671         137.824    
          137.981         138.143         138.312         138.487         138.665         138.826         138.988         139.107         139.170         139.108    
          139.163         139.191         139.165         139.193         139.256         139.321         139.254         139.328         139.419         139.486    
          139.520         139.488         139.521         139.420         139.506         139.586         139.662         139.593         139.658         139.789    
          139.960         140.141         140.336         140.549         140.789         141.100         141.561         133.617         133.629         133.649    
          133.673         133.698         133.723         133.749         133.776         133.803         133.830         133.858         133.887         133.917    
          133.947         133.980         134.014         134.049         134.085         134.123         134.163         134.203         134.242         134.284    
          134.329         134.378         134.428         134.480         134.535         134.597         134.663         134.734         134.793         134.823    
          134.804         134.839         134.888         134.950         134.982         135.000         134.984         135.002         134.959         134.996    
          135.037         135.083         135.041         135.083         135.150         135.230         135.298         135.365         135.431         135.498    
          135.566         135.646         135.746         135.881         136.049         136.237         136.415         136.582         136.748         136.912    
          137.074         137.230         137.345         137.417         137.357         137.419         137.533         137.684         137.835         137.997    
          138.159         138.326         138.498         138.635         138.708         138.636         138.700         138.733         138.703         138.736    
          138.800         138.872         138.801         138.882         138.961         139.031         138.963         139.040         139.093         139.124    
          139.093         139.128         139.181         139.096         139.132         139.099         139.135         139.170         139.200         139.170    
          139.203         139.258         139.331         139.243         139.276         139.243         139.280         139.335         139.421         139.504    
          139.423         139.505         139.630         139.764         139.830         139.760         139.819         139.850         139.819         139.849    
          139.923         139.987         139.920         139.986         140.130         140.323         140.520         140.770         141.083         141.554    
          133.618         133.644         133.670         133.697         133.724         133.751         133.779         133.807         133.836         133.865    
          133.896         133.927         133.959         133.992         134.027         134.064         134.102         134.142         134.183         134.223    
          134.265         134.310         134.358         134.408         134.460         134.516         134.575         134.643         134.711         134.760    
          134.813         134.773         134.830         134.826         134.856         134.843         134.867         134.912         134.989         135.045    
          135.083         135.049         135.081         135.123         135.153         135.111         135.124         135.109         135.122         135.149    
          135.203         135.265         135.321         135.375         135.432         135.474         135.527         135.550         135.465         135.467    
          135.596         135.653         135.492         135.558         135.750         135.834         135.676         135.793         135.982         136.201    
          136.401         136.580         136.753         136.922         137.085         137.242         137.400         137.551         137.701         137.851    
          138.013         138.174         138.339         138.512         138.642         138.725         138.648         138.714         138.748         138.717    
          138.751         138.808         138.887         138.817         138.887         138.968         139.046         138.972         139.033         139.065    
          139.032         139.068         139.102         139.137         139.106         139.137         139.172         139.205         139.176         139.205    
          139.124         139.196         139.245         139.284         139.248         139.288         139.342         139.254         139.292         139.260    
          139.294         139.332         139.362         139.336         139.365         139.411         139.444         139.413         139.447         139.507    
          139.436         139.507         139.636         139.759         139.828         139.763         139.824         139.956         140.131         140.321    
          140.516         140.764         141.082         141.557         133.636         133.665         133.694         133.723         133.752         133.781    
          133.810         133.840         133.871         133.903         133.936         133.969         134.004         134.040         134.078         134.118    
          134.160         134.202         134.244         134.289         134.336         134.386         134.437         134.491         134.549         134.611    
          134.679         134.747         134.790         134.835         134.798         134.833         134.854         134.871         134.858         134.872    
          134.904         134.940         134.894         134.954         134.999         135.065         135.111         135.140         135.107         135.134    
          135.178         135.225         135.266         135.311         135.331         135.275         135.296         135.361         135.403         135.398    
          135.383         135.381         135.421         135.460         135.424         135.455         135.486         135.498         135.482         135.505    
          135.576         135.639         135.527         135.607         135.739         135.539         135.715         135.934         136.182         136.396    
          136.584         136.763         136.938         137.066         137.129         137.073         137.137         137.218         137.284         137.204    
          137.236         137.207         137.239         137.295         137.414         137.568         137.719         137.872         138.033         138.192    
          138.354         138.528         138.655         138.738         138.661         138.744         138.859         138.979         139.035         139.069    
          139.039         139.069         138.984         139.059         139.131         139.205         139.141         139.198         139.227         139.201    
          139.230         139.285         139.360         139.294         139.370         139.483         139.647         139.806         139.969         140.142    
          140.323         140.504         140.758         141.067         141.595         133.657         133.689         133.720         133.751         133.781    
          133.813         133.844         133.877         133.910         133.944         133.979         134.016         134.053         134.093         134.134    
          134.177         134.221         134.266         134.312         134.361         134.412         134.465         134.521         134.580         134.643    
          134.709         134.776         134.839         134.897         134.930         134.973         134.949         134.983         134.997         135.018    
          135.015         135.041         135.055         135.075         135.063         135.074         135.100         135.124         135.091         135.112    
          135.148         135.162         135.131         135.140         135.182         135.194         135.154         135.161         135.210         135.216    
          135.174         135.183         135.215         135.241         135.253         135.205         135.218         135.213         135.257         135.276    
          135.336         135.292         135.334         135.372         135.381         135.377         135.398         135.429         135.445         135.457    
          135.474         135.468         135.489         135.516         135.564         135.580         135.722         135.642         135.742         135.921    
          136.182         136.402         136.599         136.781         136.956         137.115         137.232         137.309         137.242         137.319    
          137.434         137.588         137.740         137.896         138.057         138.217         138.379         138.548         138.673         138.756    
          138.685         138.749         138.782         138.753         138.786         138.843         138.907         138.853         138.919         138.992    
          139.068         139.005         139.063         139.092         139.067         139.096         139.151         139.224         139.164         139.232    
          139.310         139.368         139.398         139.372         139.403         139.325         139.393         139.466         139.522         139.478    
          139.533         139.661         139.829         139.982         140.149         140.335         140.526         140.769         141.133         141.600    
          133.680         133.714         133.747         133.780         133.813         133.847         133.881         133.915         133.951         133.988    
          134.027         134.067         134.107         134.150         134.195         134.241         134.287         134.334         134.385         134.438    
          134.493         134.549         134.609         134.672         134.736         134.803         134.873         134.940         135.002         135.058    
          135.107         135.154         135.204         135.249         135.297         135.361         135.426         135.494         135.519         135.532    
          135.574         135.595         135.547         135.601         135.604         135.615         135.668         135.745         135.672         135.715    
          135.855         135.966         135.791         135.969         136.190         136.423         136.626         136.810         136.983         137.105    
          137.167         137.114         137.169         137.198         137.176         137.205         137.254         137.332         137.272         137.339    
          137.460         137.614         137.767         137.923         138.084         138.246         138.415         138.582         138.700         138.778    
          138.717         138.784         138.905         139.020         139.089         139.035         139.095         139.218         139.376         139.533    
          139.689         139.850         140.006         140.169         140.351         140.536         140.777         141.134         141.643         133.705    
          133.741         133.777         133.812         133.847         133.883         133.920         133.958         133.997         134.037         134.079    
          134.122         134.167         134.213         134.259         134.307         134.357         134.409         134.463         134.519         134.576    
          134.636         134.698         134.764         134.832         134.902         134.976         135.045         135.113         135.175         135.236    
          135.301         135.363         135.427         135.459         135.490         135.501         135.536         135.565         135.638         135.701    
          135.763         135.778         135.810         135.853         135.903         135.831         136.006         135.955         136.067         136.245    
          136.467         136.664         136.850         137.020         137.133         137.205         137.155         137.218         137.335         137.497    
          137.650         137.800         137.958         138.118         138.284         138.456         138.620         138.776         138.937         139.087    
          139.255         139.410         139.560         139.722         139.876         140.037         140.199         140.380         140.573         140.792    
          141.123         141.659         133.732         133.771         133.808         133.846         133.884         133.923         133.963         134.004    
          134.046         134.090         134.135         134.182         134.229         134.278         134.328         134.379         134.432         134.486    
          134.543         134.601         134.661         134.725         134.791         134.862         134.934         135.010         135.085         135.159    
          135.230         135.302         135.378         135.453         135.492         135.520         135.532         135.566         135.540         135.555    
          135.561         135.576         135.598         135.608         135.640         135.683         135.763         135.836         135.870         135.906    
          135.928         135.974         135.937         135.984         136.024         136.075         136.152         136.344         136.534         136.718    
          136.897         137.068         137.226         137.345         137.404         137.361         137.429         137.539         137.693         137.843    
          137.997         138.158         138.337         138.500         138.657         138.819         138.973         139.130         139.292         139.446    
          139.595         139.755         139.912         140.074         140.236         140.415         140.610         140.830         141.131         141.632    
          133.761         133.802         133.842         133.883         133.925         133.967         134.010         134.055         134.101         134.147    
          134.195         134.245         134.295         134.347         134.400         134.454         134.509         134.566         134.626         134.687    
          134.752         134.820         134.893         134.967         135.045         135.125         135.206         135.287         135.369         135.455    
          135.539         135.624         135.709         135.795         135.875         135.958         136.003         136.053         136.055         136.106    
          136.110         136.168         136.186         136.232         136.295         136.450         136.618         136.787         136.954         137.130    
          137.246         137.302         137.272         137.333         137.368         137.398         137.380         137.411         137.460         137.423    
          137.484         137.595         137.745         137.895         138.046         138.208         138.384         138.545         138.710         138.873    
          139.018         139.175         139.331         139.482         139.634         139.789         139.951         140.110         140.273         140.452    
          140.647         140.862         141.166         141.628         133.791         133.835         133.880         133.924         133.968         134.014    
          134.062         134.099         134.118         134.102         134.122         134.145         134.166         134.142         134.152         134.144    
          134.154         134.171         134.207         134.259         134.312         134.365         134.420         134.475         134.532         134.590    
          134.650         134.713         134.780         134.850         134.924         135.001         135.083         135.168         135.255         135.345    
          135.437         135.533         135.627         135.722         135.817         135.908         135.993         136.079         136.128         136.184    
          136.175         136.210         136.234         136.228         136.251         136.261         136.297         136.293         136.331         136.403    
          136.550         136.708         136.868         137.030         137.190         137.361         137.513         137.664         137.811         137.952    
          138.103         138.259         138.432         138.601         138.771         138.922         139.070         139.224         139.374         139.523    
          139.675         139.824         139.987         140.151         140.314         140.491         140.690         140.906         141.198         141.636    
          133.824         133.872         133.920         133.968         134.016         134.066         134.117         134.153         134.177         134.158    
          134.179         134.218         134.272         134.327         134.382         134.439         134.496         134.554         134.614         134.675    
          134.739         134.809         134.881         134.956         135.037         135.122         135.213         135.308         135.408         135.510    
          135.616         135.723         135.826         135.926         135.973         136.007         136.016         136.059         136.056         136.097    
          136.086         136.104         136.106         136.125         136.145         136.189         136.232         136.274         136.274         136.313    
          136.318         136.355         136.349         136.371         136.486         136.646         136.800         136.957         137.115         137.277    
          137.445         137.598         137.742         137.886         138.023         138.172         138.322         138.483         138.664         138.836    
          138.979         139.116         139.266         139.419         139.567         139.713         139.861         140.026         140.196         140.363    
          140.540         140.741         140.956         141.221         141.636         133.859         133.911         133.963         134.016         134.069    
          134.121         134.174         134.228         134.283         134.340         134.398         134.457         134.516         134.577         134.638    
          134.701         134.767         134.838         134.913         134.991         135.074         135.166         135.265         135.368         135.479    
          135.594         135.711         135.825         135.935         136.035         136.127         136.169         136.213         136.217         136.256    
          136.303         136.372         136.393         136.400         136.440         136.453         136.515         136.588         136.563         136.616    
          136.647         136.638         136.669         136.684         136.750         136.726         136.796         136.895         137.003         137.061    
          137.036         137.102         137.201         137.370         137.537         137.634         137.691         137.664         137.733         137.771    
          137.834         137.807         137.873         137.962         138.097         138.197         138.253         138.223         138.293         138.339    
          138.403         138.349         138.379         138.365         138.393         138.440         138.548         138.680         138.759         138.702    
          138.787         138.884         139.019         139.160         139.312         139.468         139.610         139.750         139.903         140.071    
          140.236         140.406         140.584         140.778         140.993         141.250         141.640         133.896         133.955         134.013    
          134.068         134.123         134.178         134.235         134.293         134.352         134.412         134.474         134.536         134.599    
          134.662         134.727         134.796         134.869         134.947         135.030         135.118         135.215         135.325         135.439    
          135.562         135.689         135.821         135.946         136.061         136.164         136.257         136.341         136.383         136.418    
          136.424         136.463         136.497         136.516         136.543         136.574         136.597         136.619         136.630         136.648    
          136.626         136.700         136.689         136.732         136.759         136.754         136.782         136.779         136.851         136.831    
          136.904         136.938         136.998         136.983         137.051         137.059         137.088         137.080         137.108         137.153    
          137.134         137.191         137.299         137.465         137.569         137.629         137.599         137.670         137.680         137.709    
          137.695         137.724         137.771         137.742         137.812         137.845         137.892         137.919         137.908         137.935    
          137.883         137.952         137.989         138.052         138.027         138.096         138.126         138.182         138.162         138.224    
          138.257         138.328         138.294         138.362         138.402         138.474         138.431         138.501         138.610         138.720    
          138.777         138.808         138.783         138.812         138.733         138.809         138.869         138.930         138.882         138.949    
          139.048         139.204         139.311         139.371         139.324         139.397         139.460         139.525         139.482         139.549    
          139.610         139.673         139.632         139.699         139.755         139.816         139.779         139.843         139.908         139.975    
          139.935         140.003         140.070         140.132         140.096         140.160         140.233         140.304         140.257         140.340    
          140.407         140.481         140.433         140.516         140.580         140.652         140.603         140.684         140.818         141.024    
          141.279         141.634         133.940         134.003         134.062         134.121         134.180         134.239         134.300         134.362    
          134.424         134.489         134.554         134.620         134.687         134.755         134.827         134.904         134.987         135.073    
          135.169         135.274         135.389         135.520         135.660         135.808         135.952         136.083         136.196         136.297    
          136.388         136.420         136.448         136.465         136.500         136.463         136.478         136.485         136.501         136.523    
          136.535         136.565         136.601         136.639         136.679         136.667         136.733         136.748         136.813         136.801    
          136.866         136.890         136.934         136.961         136.955         136.982         136.941         137.007         137.035         137.104    
          137.087         137.141         137.238         137.403         137.553         137.644         137.712         137.681         137.752         137.783    
          137.829         137.855         137.844         137.870         137.820         137.887         137.920         137.993         137.961         138.009    
          138.036         138.024         138.053         138.063         138.109         138.136         138.123         138.149         138.074         138.102    
          138.091         138.116         138.162         138.195         138.238         138.264         138.251         138.276         138.232         138.286    
          138.323         138.370         138.395         138.381         138.406         138.333         138.359         138.345         138.370         138.416    
          138.456         138.531         138.485         138.557         138.653         138.748         138.823         138.766         138.844         138.898    
          138.967         138.924         138.985         139.049         139.107         139.072         139.132         139.198         139.257         139.221    
          139.282         139.345         139.418         139.374         139.435         139.553         139.709         139.871         140.013         140.175    
          140.291         140.374         140.321         140.399         140.462         140.542         140.492         140.564         140.631         140.716    
          140.660         140.736         140.817         140.899         140.836         140.927         141.065         141.298         141.634         133.986    
          134.051         134.115         134.178         134.241         134.305         134.369         134.434         134.503         134.572         134.642    
          134.713         134.785         134.862         134.943         135.032         135.125         135.229         135.340         135.475         135.630    
          135.789         135.954         136.093         136.228         136.348         136.438         136.513         136.575         136.622         136.644    
          136.663         136.662         136.691         136.713         136.705         136.731         136.711         136.758         136.785         136.778    
          136.806         136.767         136.832         136.857         136.923         136.910         136.973         136.998         137.066         137.047    
          137.109         137.191         137.353         137.498         137.644         137.729         137.770         137.795         137.784         137.810    
          137.767         137.823         137.858         137.926         137.900         137.957         137.974         138.002         137.988         138.015    
          138.063         138.028         138.096         138.128         138.195         138.157         138.220         138.302         138.380         138.447    
          138.408         138.479         138.510         138.583         138.542         138.612         138.655         138.708         138.681         138.736    
          138.790         138.861         138.819         138.878         138.990         139.142         139.295         139.449         139.610         139.767    
          139.925         140.087         140.250         140.411         140.573         140.738         140.865         140.955         140.889         140.970    
          141.061         141.151         141.077         141.177         141.334         141.641         134.033         134.102         134.170         134.238    
          134.307         134.375         134.442         134.514         134.590         134.665         134.740         134.818         134.900         134.988    
          135.080         135.186         135.302         135.442         135.587         135.759         135.931         136.102         136.253         136.366    
          136.472         136.554         136.624         136.678         136.681         136.683         136.719         136.714         136.711         136.733    
          136.730         136.679         136.720         136.752         136.729         136.763         136.700         136.734         136.771         136.720    
          136.764         136.810         136.856         136.884         136.873         136.901         136.839         136.918         136.958         137.022    
          137.008         137.064         137.075         137.102         137.094         137.120         137.162         137.144         137.199         137.297    
          137.440         137.578         137.715         137.846         137.979         138.066         138.108         138.133         138.120         138.144    
          138.098         138.154         138.186         138.250         138.220         138.273         138.363         138.438         138.506         138.466    
          138.538         138.570         138.633         138.603         138.653         138.747         138.900         139.056         139.205         139.349    
          139.517         139.676         139.831         139.995         140.154         140.317         140.477         140.634         140.782         140.955    
          141.099         141.203         141.116         141.209         141.332         141.466         141.342         141.475         141.706         141.708    
          134.082         134.156         134.230         134.303         134.376         134.450         134.524         134.607         134.687         134.768    
          134.854         134.944         135.040         135.140         135.252         135.376         135.538         135.684         135.866         136.043    
          136.217         136.363         136.485         136.586         136.669         136.732         136.778         136.774         136.774         136.822    
          136.832         136.763         136.735         136.830         136.787         136.872         136.962         136.922         137.008         137.108    
          137.259         137.391         137.522         137.655         137.788         137.918         138.046         138.168         138.291         138.418    
          138.499         138.568         138.526         138.594         138.675         138.817         138.971         139.118         139.267         139.417    
          139.588         139.744         139.901         140.064         140.230         140.389         140.538         140.688         140.836         140.991    
          141.167         141.381         141.625         134.134         134.214         134.292         134.372         134.453         134.532         134.623    
          134.711         134.799         134.893         134.993         135.096         135.204         135.328         135.471         135.636         135.810    
          136.016         136.195         136.361         136.497         136.617         136.711         136.791         136.852         136.896         136.938    
          136.981         137.021         137.080         137.085         137.137         137.222         137.357         137.478         137.604         137.733    
          137.861         137.984         138.106         138.225         138.353         138.443         138.494         138.467         138.532         138.563    
          138.627         138.600         138.653         138.748         138.892         139.040         139.189         139.347         139.502         139.662    
          139.826         139.986         140.168         140.327         140.465         140.607         140.738         140.872         141.016         141.168    
          141.366         141.608         134.187         134.274         134.362         134.448         134.539         134.636         134.735         134.833    
          134.935         135.045         135.159         135.285         135.430         135.588         135.810         136.023         136.206         136.381    
          136.548         136.683         136.757         136.838         136.916         136.976         137.022         137.078         137.132         137.162    
          137.204         137.216         137.258         137.264         137.306         137.316         137.360         137.452         137.567         137.688    
          137.807         137.926         138.005         138.056         138.031         138.097         138.124         138.176         138.161         138.215    
          138.247         138.300         138.284         138.338         138.376         138.429         138.410         138.465         138.501         138.567    
          138.539         138.595         138.691         138.838         138.974         139.119         139.278         139.449         139.605         139.768    
          139.955         140.167         140.349         140.472         140.593         140.689         140.792         140.898         141.003         141.130    
          141.366         141.604         134.241         134.339         134.437         134.539         134.646         134.757         134.868         134.986    
          135.109         135.244         135.395         135.576         135.825         136.007         136.194         136.378         136.552         136.704    
          136.833         136.952         136.994         137.059         137.113         137.163         137.212         137.258         137.334         137.376    
          137.418         137.423         137.465         137.482         137.523         137.525         137.571         137.649         137.763         137.831    
          137.879         137.859         137.924         137.948         137.997         137.988         138.041         138.067         138.133         138.109    
          138.163         138.246         138.369         138.495         138.649         138.802         138.941         139.072         139.226         139.391    
          139.591         139.756         139.996         140.229         140.379         140.506         140.609         140.693         140.768         140.830    
          140.908         140.958         140.873         134.298         134.413         134.527         134.649         134.778         134.907         135.044    
          135.194         135.355         135.568         135.811         135.996         136.186         136.377         136.562         136.732         136.879    
          137.003         137.105         137.188         137.258         137.278         137.308         137.350         137.395         137.459         137.533    
          137.582         137.627         137.628         137.675         137.680         137.723         137.727         137.775         137.793         137.838    
          137.837         137.886         137.911         137.975         137.959         138.010         138.088         138.212         138.337         138.467    
          138.626         138.774         138.914         139.053         139.187         139.365         139.566         139.798         140.087         140.270    
          140.435         140.580         140.695         140.775         140.818         140.873         140.875         141.154         134.360         134.497    
          134.641         134.794         134.946         135.121         135.304         135.546         135.794         135.987         136.183         136.380    
          136.576         136.762         136.929         137.072         137.189         137.286         137.366         137.427         137.475         137.490    
          137.506         137.545         137.598         137.670         137.748         137.853         137.973         138.092         138.207         138.334    
          138.457         138.610         138.747         138.877         139.022         139.160         139.291         139.521         139.902         140.122    
          140.325         140.509         140.674         140.821         140.932         140.988         140.945         141.741         134.427         134.605    
          134.795         135.008         135.224         135.469         135.765         135.972         136.179         136.386         136.592         136.794    
          136.982         137.146         137.283         137.394         137.485         137.561         137.622         137.668         137.705         137.712    
          137.736         137.763         137.843         137.926         138.021         138.130         138.247         138.363         138.489         138.606    
          138.738         138.863         138.983         139.140         139.306         139.447         139.883         140.135         140.372         140.586    
          140.775         140.938         142.139         142.310         142.439         134.502         134.781         135.056         135.359         135.720    
          135.943         136.164         136.385         136.605         136.822         137.032         137.222         137.382         137.511         137.614    
          137.700         137.773         137.844         137.904         137.947         137.981         138.024         138.102         138.205         138.305    
          138.405         138.493         138.567         138.656         138.748         138.827         138.939         139.036         139.176         139.364    
          139.603         139.770         140.541         141.063         141.500         141.907         142.213         142.486         134.664         135.108    
          135.572         135.897         136.132         136.366         136.602         136.839         137.070         137.290         137.482         137.639    
          137.758         137.849         137.932         137.995         138.101         138.952         138.887         138.767         138.727         138.807    
          139.084         139.116         139.158         139.211         139.233         139.309         139.350         139.334         139.419         139.448    
          139.623         139.880         140.127         140.240         135.164         135.832         136.091         136.329         136.574         136.829    
          137.085         137.335         137.570         137.767         137.923         138.028         138.095         138.189         138.187         139.502    
          136.071         136.300         136.527         136.782         137.061         137.344         137.625         137.883         138.098         138.255    
          138.339         138.322         139.928         136.606         137.068         137.581         138.152         138.575         139.103         139.450    
          139.750         139.963         140.100    
1
  HEAD IN LAYER   2 AT END OF TIME STEP   1 IN STRESS PERIOD    1
  ---------------------------------------------------------------------------

                1               2               3               4               5               6               7               8               9              10
               11              12              13              14              15              16              17              18              19              20
               21              22              23              24              25              26              27              28              29              30
               31              32              33              34              35              36              37              38              39              40
               41              42              43              44              45              46              47              48              49              50
               51              52              53              54              55              56              57              58              59              60
               61              62              63              64              65              66              67              68              69              70
               71              72              73              74              75              76              77              78              79              80
               81              82              83              84              85              86              87              88              89              90
               91              92              93              94              95              96              97              98              99             100
              101             102             103             104             105             106             107             108             109             110
              111             112             113             114             115             116             117             118             119             120
              121             122             123             124             125             126             127             128             129             130
              131             132             133             134             135             136             137             138             139             140
              141             142             143             144             145             146             147             148             149             150
              151             152             153             154             155             156             157             158             159             160
              161             162             163             164             165             166             167             168             169             170
              171             172             173             174             175             176             177             178             179             180
              181             182             183             184             185             186             187             188             189             190
              191             192             193             194             195             196             197             198             199             200
              201             202             203             204             205             206             207             208             209             210
              211             212             213             214             215             216             217             218             219             220
              221             222             223             224             225             226             227             228             229             230
              231             232             233             234             235             236             237             238             239             240
              241             242             243             244             245             246             247             248             249             250
              251             252             253             254             255             256             257             258             259             260
              261             262             263             264             265             266             267             268             269             270
              271             272             273             274             275             276             277             278             279             280
              281             282             283             284             285             286             287             288             289             290
              291             292             293             294             295             296             297             298             299             300
              301             302             303             304             305             306             307             308             309             310
              311             312             313             314             315             316             317             318             319             320
              321             322             323             324             325             326             327             328             329             330
              331             332             333             334             335             336             337             338             339             340
              341             342             343             344             345             346             347             348             349             350
              351             352             353             354             355             356             357             358             359             360
              361             362             363             364             365             366             367             368             369             370
              371             372             373             374             375             376             377             378             379             380
              381             382             383             384             385             386             387             388             389             390
              391             392             393             394             395             396             397             398             399             400
              401             402             403             404             405             406             407             408             409             410
              411             412             413             414             415             416             417             418             419             420
              421             422             423             424             425             426             427             428             429             430
              431             432             433             434             435             436             437             438             439             440
              441             442             443             444             445             446             447             448             449             450
              451             452             453             454             455             456             457             458             459             460
              461             462             463             464             465             466             467             468             469             470
              471             472             473             474             475             476             477             478             479             480
              481             482             483             484             485             486             487             488             489             490
              491             492             493             494             495             496             497             498             499             500
              501             502             503             504             505             506             507             508             509             510
              511             512             513             514             515             516             517             518             519             520
              521             522             523             524             525             526             527             528             529             530
              531             532             533             534             535             536             537             538             539             540
              541             542             543             544             545             546             547             548             549             550
              551             552             553             554             555             556             557             558             559             560
              561             562             563             564             565             566             567             568             569             570
              571             572             573             574             575             576             577             578             579             580
              581             582             583             584             585             586             587             588             589             590
              591             592             593             594             595             596             597             598             599             600
              601             602             603             604             605             606             607             608             609             610
              611             612             613             614             615             616             617             618             619             620
              621             622             623             624             625             626             627             628             629             630
              631             632             633             634             635             636             637             638             639             640
              641             642             643             644             645             646             647             648             649             650
              651             652             653             654             655             656             657             658             659             660
              661             662             663             664             665             666             667             668             669             670
              671             672             673             674             675             676             677             678             679             680
              681             682             683             684             685             686             687             688             689             690
              691             692             693             694             695             696             697             698             699             700
              701             702             703             704             705             706             707             708             709             710
              711             712             713             714             715             716             717             718             719             720
              721             722             723             724             725             726             727             728             729             730
              731             732             733             734             735             736             737             738             739             740
              741             742             743             744             745             746             747             748             749             750
              751             752             753             754             755             756             757             758             759             760
              761             762             763             764             765             766             767             768             769             770
              771             772             773             774             775             776             777             778             779             780
              781             782             783             784             785             786             787             788             789             790
              791             792             793             794             795             796             797             798             799             800
              801             802             803             804             805             806             807             808             809             810
              811             812             813             814             815             816             817             818             819             820
              821             822             823             824             825             826             827             828             829             830
              831             832             833             834             835             836             837             838             839             840
              841             842             843             844             845             846             847             848             849             850
              851             852             853             854             855             856             857             858             859             860
              861             862             863             864             865             866             867             868             869             870
              871             872             873             874             875             876             877             878             879             880
              881             882             883             884             885             886             887             888             889             890
              891             892             893             894             895             896             897             898             899             900
              901             902             903             904             905             906             907             908             909             910
              911             912             913             914             915             916             917             918             919             920
              921             922             923             924             925             926             927             928             929             930
              931             932             933             934             935             936             937             938             939             940
              941             942             943             944             945             946             947             948             949             950
              951             952             953             954             955             956             957             958             959             960
              961             962             963             964             965             966             967             968             969             970
              971             972             973             974             975             976             977             978             979             980
              981             982             983             984             985             986             987             988             989             990
              991             992             993             994             995             996             997             998             999            1000
             1001            1002            1003            1004            1005            1006            1007            1008            1009            1010
             1011            1012            1013            1014            1015            1016            1017            1018            1019            1020
             1021            1022            1023            1024            1025            1026            1027            1028            1029            1030
             1031            1032            1033            1034            1035            1036            1037            1038            1039            1040
             1041            1042            1043            1044            1045            1046            1047            1048            1049            1050
             1051            1052            1053            1054            1055            1056            1057            1058            1059            1060
             1061            1062            1063            1064            1065            1066            1067            1068            1069            1070
             1071            1072            1073            1074            1075            1076            1077            1078            1079            1080
             1081            1082            1083            1084            1085            1086            1087            1088            1089            1090
             1091            1092            1093            1094            1095            1096            1097            1098            1099            1100
             1101            1102            1103            1104            1105            1106            1107            1108            1109            1110
             1111            1112            1113            1114            1115            1116            1117            1118            1119            1120
             1121            1122            1123            1124            1125            1126            1127            1128            1129            1130
             1131            1132            1133            1134            1135            1136            1137            1138            1139            1140
             1141            1142            1143            1144            1145            1146            1147            1148            1149            1150
             1151            1152            1153            1154            1155            1156            1157            1158            1159            1160
             1161            1162            1163            1164            1165            1166            1167            1168            1169            1170
             1171            1172            1173            1174            1175            1176            1177            1178            1179            1180
             1181            1182            1183            1184            1185            1186            1187            1188            1189            1190
             1191            1192            1193            1194            1195            1196            1197            1198            1199            1200
             1201            1202            1203            1204            1205            1206            1207            1208            1209            1210
             1211            1212            1213            1214            1215            1216            1217            1218            1219            1220
             1221            1222            1223            1224            1225            1226            1227            1228            1229            1230
             1231            1232            1233            1234            1235            1236            1237            1238            1239            1240
             1241            1242            1243            1244            1245            1246            1247            1248            1249            1250
             1251            1252            1253            1254            1255            1256            1257            1258            1259            1260
             1261            1262            1263            1264            1265            1266            1267            1268            1269            1270
             1271            1272            1273            1274            1275            1276            1277            1278            1279            1280
             1281            1282            1283            1284            1285            1286            1287            1288            1289            1290
             1291            1292            1293            1294            1295            1296            1297            1298            1299            1300
             1301            1302            1303            1304            1305            1306            1307            1308            1309            1310
             1311            1312            1313            1314            1315            1316            1317            1318            1319            1320
             1321            1322            1323            1324            1325            1326            1327            1328            1329            1330
             1331            1332            1333            1334            1335            1336            1337            1338            1339            1340
             1341            1342            1343            1344            1345            1346            1347            1348            1349            1350
             1351            1352            1353            1354            1355            1356            1357            1358            1359            1360
             1361            1362            1363            1364            1365            1366            1367            1368            1369            1370
             1371            1372            1373            1374            1375            1376            1377            1378            1379            1380
             1381            1382            1383            1384            1385            1386            1387            1388            1389            1390
             1391            1392            1393            1394            1395            1396            1397            1398            1399            1400
             1401            1402            1403            1404            1405            1406            1407            1408            1409            1410
             1411            1412            1413            1414            1415            1416            1417            1418            1419            1420
             1421            1422            1423            1424            1425            1426            1427            1428            1429            1430
             1431            1432            1433            1434            1435            1436            1437            1438            1439            1440
             1441            1442            1443            1444            1445            1446            1447            1448            1449            1450
             1451            1452            1453            1454            1455            1456            1457            1458            1459            1460
             1461            1462            1463            1464            1465            1466            1467            1468            1469            1470
             1471            1472            1473            1474            1475            1476            1477            1478            1479            1480
             1481            1482            1483            1484            1485            1486            1487            1488            1489            1490
             1491            1492            1493            1494            1495            1496            1497            1498            1499            1500
             1501            1502            1503            1504            1505            1506            1507            1508            1509            1510
             1511            1512            1513            1514            1515            1516            1517            1518            1519            1520
             1521            1522            1523            1524            1525            1526            1527            1528            1529            1530
             1531            1532            1533            1534            1535            1536            1537            1538            1539            1540
             1541            1542            1543            1544            1545            1546            1547            1548            1549            1550
             1551            1552            1553            1554            1555            1556            1557            1558            1559            1560
             1561            1562            1563            1564            1565            1566            1567            1568            1569            1570
             1571            1572            1573            1574            1575            1576            1577            1578            1579            1580
             1581            1582            1583            1584            1585            1586            1587            1588            1589            1590
             1591            1592            1593            1594            1595            1596            1597            1598            1599            1600
             1601            1602            1603            1604            1605            1606            1607            1608            1609            1610
             1611            1612            1613            1614            1615            1616            1617            1618            1619            1620
             1621            1622            1623            1624            1625            1626            1627            1628            1629            1630
             1631            1632            1633            1634            1635            1636            1637            1638            1639            1640
             1641            1642            1643            1644            1645            1646            1647            1648            1649            1650
             1651            1652            1653            1654            1655            1656            1657            1658            1659            1660
             1661            1662            1663            1664            1665            1666            1667            1668            1669            1670
             1671            1672            1673            1674            1675            1676            1677            1678            1679            1680
             1681            1682            1683            1684            1685            1686            1687            1688            1689            1690
             1691            1692            1693            1694            1695            1696            1697            1698            1699            1700
             1701            1702            1703            1704            1705            1706            1707            1708            1709            1710
             1711            1712            1713            1714            1715            1716            1717            1718            1719            1720
             1721            1722            1723            1724            1725            1726            1727            1728            1729            1730
             1731            1732            1733            1734            1735            1736            1737            1738            1739            1740
             1741            1742            1743            1744            1745            1746            1747            1748            1749            1750
             1751            1752            1753            1754            1755            1756            1757            1758            1759            1760
             1761            1762            1763            1764            1765            1766            1767            1768            1769            1770
             1771            1772            1773            1774            1775            1776            1777            1778            1779            1780
             1781            1782            1783            1784            1785            1786            1787            1788            1789            1790
             1791            1792            1793            1794            1795            1796            1797            1798            1799            1800
             1801            1802            1803            1804            1805            1806            1807            1808            1809            1810
             1811            1812            1813            1814            1815            1816            1817            1818            1819            1820
             1821            1822            1823            1824            1825            1826            1827            1828            1829            1830
             1831            1832            1833            1834            1835            1836            1837            1838            1839            1840
             1841            1842            1843            1844            1845            1846            1847            1848            1849            1850
             1851            1852            1853            1854            1855            1856            1857            1858            1859            1860
             1861            1862            1863            1864            1865            1866            1867            1868            1869            1870
             1871            1872            1873            1874            1875            1876            1877            1878            1879            1880
             1881            1882            1883            1884            1885            1886            1887            1888            1889            1890
             1891            1892            1893            1894            1895            1896            1897            1898            1899            1900
             1901            1902            1903            1904            1905            1906            1907            1908            1909            1910
             1911            1912            1913            1914            1915            1916            1917            1918            1919            1920
             1921            1922            1923            1924            1925            1926            1927            1928            1929            1930
             1931            1932            1933            1934            1935            1936            1937            1938            1939            1940
             1941            1942            1943            1944            1945            1946            1947            1948            1949            1950
             1951            1952            1953            1954            1955            1956            1957            1958            1959            1960
             1961            1962            1963            1964            1965            1966            1967            1968            1969            1970
             1971            1972            1973            1974            1975            1976            1977            1978            1979            1980
             1981            1982            1983            1984            1985            1986            1987            1988            1989            1990
             1991            1992            1993            1994            1995            1996            1997            1998            1999            2000
             2001            2002            2003            2004            2005            2006            2007            2008            2009            2010
             2011            2012            2013            2014            2015            2016            2017            2018            2019            2020
             2021            2022            2023            2024            2025            2026            2027            2028            2029            2030
             2031            2032            2033            2034            2035            2036            2037            2038            2039            2040
             2041            2042            2043            2044            2045            2046            2047            2048            2049            2050
             2051            2052            2053            2054            2055            2056            2057            2058            2059            2060
             2061            2062            2063            2064            2065            2066            2067            2068            2069            2070
             2071            2072            2073            2074            2075            2076            2077            2078            2079            2080
             2081            2082            2083            2084            2085            2086            2087            2088            2089            2090
             2091            2092            2093            2094            2095            2096            2097            2098            2099            2100
             2101            2102            2103            2104            2105            2106            2107            2108            2109            2110
             2111            2112            2113            2114            2115            2116            2117            2118            2119            2120
             2121            2122            2123            2124            2125            2126            2127            2128            2129            2130
             2131            2132            2133            2134            2135            2136            2137            2138            2139            2140
             2141            2142            2143            2144            2145            2146            2147            2148            2149            2150
             2151            2152            2153            2154            2155            2156            2157            2158            2159            2160
             2161            2162            2163            2164            2165            2166            2167            2168            2169            2170
             2171            2172            2173            2174            2175            2176            2177            2178            2179            2180
             2181            2182            2183            2184            2185            2186            2187            2188            2189            2190
             2191            2192            2193            2194            2195            2196            2197            2198            2199            2200
             2201            2202            2203            2204            2205            2206            2207            2208            2209            2210
             2211            2212            2213            2214            2215            2216            2217            2218            2219            2220
             2221            2222            2223            2224            2225            2226            2227            2228            2229            2230
             2231            2232            2233            2234            2235            2236            2237            2238            2239            2240
             2241            2242            2243            2244            2245            2246            2247            2248            2249            2250
             2251            2252            2253            2254            2255            2256            2257            2258            2259            2260
             2261            2262            2263            2264            2265            2266            2267            2268            2269            2270
             2271            2272            2273            2274            2275            2276            2277            2278            2279            2280
             2281            2282            2283            2284            2285            2286            2287            2288            2289            2290
             2291            2292            2293            2294            2295            2296            2297            2298            2299            2300
             2301            2302            2303            2304            2305            2306            2307            2308            2309            2310
             2311            2312            2313            2314            2315            2316            2317            2318            2319            2320
             2321            2322            2323            2324            2325            2326            2327            2328            2329            2330
             2331            2332            2333            2334            2335            2336            2337            2338            2339            2340
             2341            2342            2343            2344            2345            2346            2347            2348            2349            2350
             2351            2352            2353            2354            2355            2356            2357            2358            2359            2360
             2361            2362            2363            2364            2365            2366            2367            2368            2369            2370
             2371            2372            2373            2374            2375            2376            2377            2378            2379            2380
             2381            2382            2383            2384            2385            2386            2387            2388            2389            2390
             2391            2392            2393            2394            2395            2396            2397            2398            2399            2400
             2401            2402            2403            2404            2405            2406            2407            2408            2409            2410
             2411            2412            2413            2414            2415            2416            2417            2418            2419            2420
             2421            2422            2423            2424            2425            2426            2427            2428            2429            2430
             2431            2432            2433            2434            2435            2436            2437            2438            2439            2440
             2441            2442            2443            2444            2445            2446            2447            2448            2449            2450
             2451            2452            2453            2454            2455            2456            2457            2458            2459            2460
             2461            2462            2463            2464            2465            2466            2467            2468            2469            2470
             2471            2472            2473            2474            2475            2476            2477            2478            2479            2480
             2481            2482            2483            2484            2485            2486            2487            2488            2489            2490
             2491            2492            2493            2494            2495            2496            2497            2498            2499            2500
             2501            2502            2503            2504            2505            2506            2507            2508            2509            2510
             2511            2512            2513            2514            2515            2516            2517            2518            2519            2520
             2521            2522            2523            2524            2525            2526            2527            2528            2529            2530
             2531            2532            2533            2534            2535            2536            2537            2538            2539            2540
             2541            2542            2543            2544            2545            2546            2547            2548            2549            2550
             2551            2552            2553            2554            2555            2556            2557            2558            2559            2560
             2561            2562            2563            2564            2565            2566            2567            2568            2569            2570
             2571            2572            2573            2574            2575            2576            2577            2578            2579            2580
             2581            2582            2583            2584            2585            2586            2587            2588            2589            2590
             2591            2592            2593            2594            2595            2596            2597            2598            2599            2600
             2601            2602            2603            2604            2605            2606            2607            2608            2609            2610
             2611            2612            2613            2614            2615            2616            2617            2618            2619            2620
             2621            2622            2623            2624            2625            2626            2627            2628            2629            2630
             2631            2632            2633            2634            2635            2636            2637            2638            2639            2640
             2641            2642            2643            2644            2645            2646            2647            2648            2649            2650
             2651            2652            2653            2654            2655            2656            2657            2658            2659            2660
             2661            2662            2663            2664            2665            2666            2667            2668            2669            2670
             2671            2672            2673            2674            2675            2676            2677            2678            2679            2680
             2681            2682            2683            2684            2685            2686            2687            2688            2689            2690
             2691            2692            2693            2694            2695            2696            2697            2698            2699            2700
             2701            2702            2703            2704            2705            2706            2707            2708            2709            2710
             2711            2712            2713            2714            2715            2716            2717            2718            2719            2720
             2721            2722            2723            2724            2725            2726            2727            2728            2729            2730
             2731            2732            2733            2734            2735            2736            2737            2738            2739            2740
             2741            2742            2743            2744            2745            2746            2747            2748            2749            2750
             2751            2752            2753            2754            2755            2756            2757            2758            2759            2760
             2761            2762            2763            2764            2765            2766            2767            2768            2769            2770
             2771            2772            2773            2774            2775            2776            2777            2778            2779            2780
             2781            2782            2783            2784            2785            2786            2787            2788            2789            2790
             2791            2792            2793            2794            2795            2796            2797            2798            2799            2800
             2801            2802            2803            2804            2805            2806            2807            2808            2809            2810
             2811            2812            2813            2814            2815            2816            2817            2818            2819            2820
             2821            2822            2823            2824            2825            2826            2827            2828            2829            2830
             2831            2832            2833            2834            2835            2836            2837            2838            2839            2840
             2841            2842            2843            2844            2845            2846            2847            2848            2849            2850
             2851            2852            2853            2854            2855            2856            2857            2858            2859            2860
             2861            2862            2863            2864            2865            2866            2867            2868            2869            2870
             2871            2872            2873            2874            2875            2876            2877            2878            2879            2880
             2881            2882            2883            2884            2885            2886            2887            2888            2889            2890
             2891            2892            2893            2894            2895            2896            2897            2898            2899            2900
             2901            2902            2903            2904            2905            2906            2907            2908            2909            2910
             2911            2912            2913            2914            2915            2916            2917            2918            2919            2920
             2921            2922            2923            2924            2925            2926            2927            2928            2929            2930
             2931            2932            2933            2934            2935            2936            2937            2938            2939            2940
             2941            2942            2943            2944            2945            2946            2947            2948            2949            2950
             2951            2952            2953            2954            2955            2956            2957            2958            2959            2960
             2961            2962            2963            2964            2965            2966            2967            2968            2969            2970
             2971            2972            2973            2974            2975            2976            2977            2978            2979            2980
             2981            2982            2983            2984            2985            2986            2987            2988            2989            2990
             2991            2992            2993            2994            2995            2996            2997            2998            2999            3000
             3001            3002            3003            3004            3005            3006            3007            3008            3009            3010
             3011            3012            3013            3014            3015            3016            3017            3018            3019            3020
             3021            3022            3023            3024            3025            3026            3027            3028            3029            3030
             3031            3032            3033            3034            3035            3036            3037            3038            3039            3040
             3041            3042            3043            3044            3045            3046            3047            3048            3049            3050
             3051            3052            3053            3054            3055            3056            3057            3058            3059            3060
             3061            3062            3063            3064            3065            3066            3067            3068            3069            3070
             3071            3072            3073            3074            3075            3076            3077            3078            3079            3080
             3081            3082            3083            3084            3085            3086            3087            3088            3089            3090
             3091            3092            3093            3094            3095            3096            3097            3098            3099            3100
             3101            3102            3103            3104            3105            3106            3107            3108            3109            3110
             3111            3112            3113            3114            3115            3116            3117            3118            3119            3120
             3121            3122            3123            3124            3125            3126            3127            3128            3129            3130
             3131            3132            3133            3134            3135            3136            3137            3138            3139            3140
             3141            3142            3143            3144            3145            3146            3147            3148            3149            3150
             3151            3152            3153            3154            3155            3156            3157            3158            3159            3160
             3161            3162            3163            3164            3165            3166            3167            3168            3169            3170
             3171            3172            3173            3174            3175            3176            3177            3178            3179            3180
             3181            3182            3183            3184            3185            3186            3187            3188            3189            3190
             3191            3192            3193            3194            3195            3196            3197            3198            3199            3200
             3201            3202            3203            3204            3205            3206            3207            3208            3209            3210
             3211            3212            3213            3214            3215            3216            3217            3218            3219            3220
             3221            3222            3223            3224            3225            3226            3227            3228            3229            3230
             3231            3232            3233            3234            3235            3236            3237            3238            3239            3240
             3241            3242            3243            3244            3245            3246            3247            3248            3249            3250
             3251            3252            3253            3254            3255            3256            3257            3258            3259            3260
             3261            3262            3263            3264            3265            3266            3267            3268            3269            3270
             3271            3272            3273            3274            3275            3276            3277            3278            3279            3280
             3281            3282            3283            3284            3285            3286            3287            3288            3289            3290
             3291            3292            3293            3294            3295            3296            3297            3298            3299            3300
             3301            3302            3303            3304            3305            3306            3307            3308            3309            3310
             3311            3312            3313            3314            3315            3316            3317            3318            3319            3320
             3321            3322            3323            3324            3325            3326            3327            3328            3329            3330
             3331            3332            3333            3334            3335            3336            3337            3338            3339            3340
             3341            3342            3343            3344            3345            3346            3347            3348            3349            3350
             3351            3352            3353            3354            3355            3356            3357            3358            3359            3360
             3361            3362            3363            3364            3365            3366            3367            3368            3369            3370
             3371            3372            3373            3374            3375            3376            3377            3378            3379            3380
             3381            3382            3383            3384            3385            3386            3387            3388            3389            3390
             3391            3392            3393            3394            3395            3396            3397            3398            3399            3400
             3401            3402            3403            3404            3405            3406            3407            3408            3409            3410
             3411            3412            3413            3414            3415            3416            3417            3418            3419            3420
             3421            3422            3423            3424            3425            3426            3427            3428            3429            3430
             3431            3432            3433            3434            3435            3436            3437            3438            3439            3440
             3441            3442            3443            3444            3445            3446            3447            3448            3449            3450
             3451            3452            3453            3454            3455            3456            3457            3458            3459            3460
             3461            3462            3463            3464            3465            3466            3467            3468            3469            3470
             3471            3472            3473            3474            3475            3476            3477            3478            3479            3480
             3481            3482            3483            3484            3485            3486            3487            3488            3489            3490
             3491            3492            3493            3494            3495            3496            3497            3498            3499            3500
             3501            3502            3503            3504            3505            3506            3507            3508            3509            3510
             3511            3512            3513            3514            3515            3516            3517            3518            3519            3520
             3521            3522            3523            3524            3525            3526            3527            3528            3529            3530
             3531            3532            3533            3534            3535            3536            3537            3538            3539            3540
             3541            3542            3543            3544            3545            3546            3547            3548            3549            3550
             3551            3552            3553            3554            3555            3556            3557            3558            3559            3560
             3561            3562            3563            3564            3565            3566            3567            3568            3569            3570
             3571            3572            3573            3574            3575            3576            3577            3578            3579            3580
             3581            3582            3583            3584            3585            3586            3587            3588            3589            3590
             3591            3592            3593            3594            3595            3596            3597            3598            3599            3600
             3601            3602            3603            3604            3605            3606            3607            3608            3609            3610
             3611            3612            3613            3614            3615            3616            3617            3618            3619            3620
             3621            3622            3623            3624            3625            3626            3627            3628            3629            3630
             3631            3632            3633            3634            3635            3636            3637            3638            3639            3640
             3641            3642            3643            3644            3645            3646            3647            3648            3649            3650
             3651            3652            3653            3654            3655            3656            3657            3658            3659            3660
             3661            3662            3663            3664            3665            3666            3667            3668            3669            3670
             3671            3672            3673            3674            3675            3676            3677            3678            3679            3680
             3681            3682            3683            3684            3685            3686            3687            3688            3689            3690
             3691            3692            3693            3694            3695            3696            3697            3698            3699            3700
             3701            3702            3703            3704            3705            3706            3707            3708            3709            3710
             3711            3712            3713            3714            3715            3716            3717            3718            3719            3720
             3721            3722            3723            3724            3725            3726            3727            3728            3729            3730
             3731            3732            3733            3734            3735            3736            3737            3738            3739            3740
             3741            3742            3743            3744            3745            3746            3747            3748            3749            3750
             3751            3752            3753            3754            3755            3756            3757            3758            3759            3760
             3761            3762            3763            3764            3765            3766            3767            3768            3769            3770
             3771            3772            3773            3774            3775            3776            3777            3778            3779            3780
             3781            3782            3783
 ................................................................................................................................................................
   1      133.708         133.699         133.676         133.642         133.619         133.611         133.612         133.603         133.611         133.647    
          133.700         133.761         133.823         133.887         133.951         134.014         134.075         134.135         134.193         134.250    
          134.304         134.351         134.384         133.686         133.691         133.683         133.663         133.632         133.606         133.594    
          133.605         133.593         133.589         133.593         133.584         133.586         133.615         133.665         133.724         133.788    
          133.854         133.921         133.987         134.052         134.116         134.178         134.239         134.298         134.354         134.407    
          134.459         133.670         133.676         133.678         133.671         133.654         133.630         133.602         133.587         133.585    
          133.590         133.587         133.591         133.602         133.588         133.594         133.625         133.644         133.610         133.632    
          133.679         133.742         133.810         133.881         133.952         134.022         134.091         134.158         134.223         134.288    
          134.351         134.414         134.476         134.529         133.660         133.665         133.669         133.669         133.664         133.652    
          133.634         133.615         133.599         133.592         133.600         133.616         133.597         133.606         133.639         133.658    
          133.623         133.646         133.696         133.765         133.840         133.916         133.992         134.064         134.136         134.205    
          134.275         134.344         134.414         134.483         134.547         134.601         133.651         133.656         133.661         133.665    
          133.666         133.662         133.654         133.643         133.630         133.617         133.608         133.605         133.614         133.631    
          133.613         133.623         133.657         133.679         133.643         133.668         133.723         133.801         133.883         133.963    
          134.039         134.113         134.186         134.259         134.333         134.408         134.484         134.557         134.626         134.685    
          133.641         133.647         133.653         133.659         133.663         133.666         133.665         133.661         133.655         133.647    
          133.638         133.631         133.626         133.626         133.637         133.657         133.639         133.652         133.686         133.714    
          133.676         133.707         133.770         133.858         133.941         134.018         134.092         134.165         134.240         134.318    
          134.398         134.480         134.563         134.643         134.719         134.787         133.629         133.636         133.644         133.651    
          133.658         133.664         133.668         133.670         133.670         133.668         133.665         133.661         133.658         133.655    
          133.655         133.662         133.677         133.702         133.687         133.706         133.741         133.776         133.740         133.779    
          133.846         133.928         134.000         134.071         134.143         134.219         134.299         134.384         134.473         134.563    
          134.655         134.746         134.835         134.920         133.613         133.623         133.632         133.642         133.651         133.659    
          133.667         133.673         133.678         133.681         133.683         133.684         133.685         133.686         133.689         133.693    
          133.704         133.726         133.753         133.790         133.773         133.804         133.836         133.869         133.845         133.879    
          133.926         133.989         134.052         134.119         134.193         134.275         134.365         134.461         134.560         134.661    
          134.766         134.875         134.987         135.102         133.596         133.607         133.618         133.627         133.632         133.626    
          133.631         133.640         133.651         133.661         133.671         133.679         133.686         133.693         133.698         133.704    
          133.709         133.715         133.723         133.734         133.750         133.777         133.821         133.860         133.889         133.871    
          133.896         133.920         133.942         133.925         133.946         133.972         133.994         133.972         133.992         134.025    
          134.049         134.018         134.044         134.093         134.163         134.247         134.342         134.444         134.550         134.661    
          134.777         134.902         135.040         135.199         135.410         135.590         135.743         135.877         136.000         136.112    
          136.216         136.314         136.409         136.501         136.592         136.682         136.771         136.860         136.951         137.042    
          137.135         137.228         137.323         137.420         137.520         137.623         137.733         137.854         137.979         138.096    
          138.210         138.331         138.463         138.604         138.749         138.910         139.079         139.262         139.471         139.668    
          133.594         133.604         133.613         133.618         133.613         133.618         133.624         133.626         133.623         133.626    
          133.631         133.625         133.630         133.640         133.653         133.664         133.676         133.686         133.696         133.705    
          133.714         133.723         133.733         133.743         133.756         133.771         133.791         133.819         133.856         133.900    
          133.944         133.985         134.016         134.038         134.017         134.035         134.065         134.088         134.059         134.080    
          134.123         134.154         134.110         134.144         134.215         134.316         134.423         134.535         134.652         134.776    
          134.910         135.057         135.217         135.393         135.559         135.708         135.840         135.962         136.074         136.179    
          136.279         136.374         136.467         136.559         136.650         136.740         136.831         136.923         137.017         137.113    
          137.210         137.311         137.414         137.520         137.630         137.747         137.869         137.994         138.116         138.238    
          138.365         138.502         138.649         138.809         138.975         139.156         139.369         139.636         139.949         140.328    
          133.593         133.602         133.614         133.627         133.641         133.655         133.669         133.682         133.694         133.706    
          133.718         133.730         133.742         133.755         133.769         133.785         133.804         133.826         133.854         133.887    
          133.924         133.961         133.997         134.032         134.069         134.104         134.134         134.104         134.132         134.189    
          134.289         134.400         134.515         134.635         134.764         134.901         135.048         135.203         135.361         135.516    
          135.659         135.789         135.909         136.021         136.127         136.227         136.324         136.418         136.512         136.604    
          136.697         136.791         136.886         136.984         137.085         137.188         137.295         137.406         137.519         137.636    
          137.758         137.883         138.010         138.137         138.265         138.399         138.542         138.697         138.867         139.041    
          139.232         139.464         139.756         140.075         140.409         140.735         133.593         133.601         133.614         133.629    
          133.643         133.659         133.673         133.688         133.703         133.717         133.731         133.746         133.760         133.776    
          133.793         133.812         133.832         133.856         133.884         133.914         133.947         133.981         134.015         134.049    
          134.084         134.111         134.135         134.119         134.139         134.166         134.196         134.168         134.201         134.267    
          134.375         134.490         134.612         134.741         134.878         135.024         135.174         135.323         135.469         135.606    
          135.733         135.852         135.963         136.069         136.171         136.269         136.364         136.460         136.555         136.651    
          136.748         136.847         136.950         137.056         137.165         137.278         137.397         137.517         137.640         137.766    
          137.895         138.024         138.157         138.291         138.430         138.580         138.744         138.916         139.096         139.292    
          139.528         139.818         140.112         140.427         140.758         141.020         133.593         133.602         133.615         133.631    
          133.647         133.663         133.679         133.695         133.711         133.727         133.744         133.761         133.778         133.796    
          133.815         133.835         133.858         133.883         133.910         133.940         133.971         134.004         134.036         134.069    
          134.104         134.144         134.177         134.206         134.185         134.209         134.243         134.278         134.242         134.279    
          134.352         134.462         134.582         134.710         134.846         134.991         135.138         135.281         135.422         135.554    
          135.678         135.795         135.905         136.010         136.113         136.212         136.310         136.408         136.506         136.605    
          136.706         136.810         136.917         137.029         137.143         137.263         137.389         137.516         137.643         137.772    
          137.904         138.036         138.173         138.316         138.459         138.616         138.782         138.956         139.138         139.333    
          139.568         139.839         140.118         140.412         140.713         140.990         141.198         133.594         133.604         133.617    
          133.633         133.650         133.668         133.685         133.702         133.720         133.738         133.756         133.775         133.794    
          133.814         133.835         133.857         133.881         133.906         133.934         133.964         133.994         134.026         134.059    
          134.092         134.127         134.165         134.209         134.247         134.280         134.253         134.279         134.321         134.357    
          134.314         134.354         134.430         134.546         134.673         134.807         134.953         135.099         135.239         135.376    
          135.504         135.626         135.740         135.849         135.954         136.057         136.157         136.257         136.357         136.459    
          136.561         136.667         136.775         136.888         137.004         137.125         137.250         137.382         137.514         137.646    
          137.778         137.911         138.047         138.190         138.338         138.487         138.645         138.812         138.987         139.170    
          139.364         139.595         139.848         140.105         140.373         140.648         140.918         141.152         141.330         133.596    
          133.606         133.620         133.637         133.654         133.673         133.691         133.710         133.729         133.748         133.768    
          133.788         133.809         133.831         133.853         133.877         133.902         133.928         133.956         133.986         134.017    
          134.049         134.082         134.115         134.150         134.187         134.228         134.274         134.314         134.347         134.316    
          134.341         134.389         134.427         134.377         134.419         134.505         134.630         134.766         134.913         135.059    
          135.198         135.332         135.458         135.577         135.689         135.796         135.901         136.003         136.105         136.207    
          136.309         136.414         136.521         136.631         136.745         136.862         136.984         137.109         137.240         137.376    
          137.513         137.648         137.782         137.918         138.057         138.205         138.358         138.513         138.672         138.836    
          139.006         139.192         139.396         139.621         139.851         140.084         140.329         140.581         140.833         141.070    
          141.280         141.427         133.599         133.608         133.623         133.640         133.659         133.678         133.698         133.718    
          133.738         133.758         133.779         133.801         133.823         133.846         133.870         133.895         133.921         133.949    
          133.978         134.008         134.039         134.072         134.105         134.139         134.175         134.211         134.250         134.290    
          134.333         134.373         134.409         134.374         134.401         134.458         134.501         134.443         134.492         134.588    
          134.727         134.873         135.021         135.160         135.291         135.415         135.531         135.642         135.747         135.850    
          135.952         136.055         136.158         136.263         136.372         136.483         136.598         136.718         136.841         136.967    
          137.097         137.232         137.372         137.512         137.649         137.787         137.925         138.068         138.220         138.377    
          138.535         138.696         138.859         139.025         139.210         139.423         139.640         139.846         140.062         140.289    
          140.523         140.761         140.957         141.052         140.919         141.027         141.207         141.380         133.602         133.611    
          133.626         133.644         133.664         133.684         133.704         133.725         133.746         133.768         133.790         133.813    
          133.837         133.861         133.886         133.912         133.939         133.968         133.998         134.029         134.061         134.095    
          134.129         134.164         134.200         134.237         134.275         134.313         134.352         134.394         134.438         134.481    
          134.441         134.470         134.487         134.471         134.487         134.540         134.592         134.527         134.587         134.697    
          134.818         134.879         134.803         134.873         134.986         135.125         135.254         135.375         135.488         135.597    
          135.700         135.802         135.903         136.006         136.111         136.219         136.331         136.448         136.569         136.694    
          136.823         136.955         137.089         137.228         137.370         137.512         137.652         137.792         137.934         138.081    
          138.236         138.395         138.556         138.719         138.881         139.044         139.232         139.443         139.647         139.839    
          140.040         140.252         140.476         140.667         140.763         140.644         140.733         140.864         140.910         140.853    
          140.898         140.987         140.858         140.954         141.142         141.323         133.605         133.615         133.630         133.648    
          133.668         133.689         133.710         133.732         133.754         133.777         133.801         133.825         133.849         133.875    
          133.901         133.928         133.956         133.986         134.017         134.049         134.083         134.118         134.153         134.190    
          134.227         134.265         134.304         134.343         134.382         134.422         134.452         134.483         134.466         134.492    
          134.525         134.582         134.530         134.583         134.681         134.793         134.851         134.880         134.848         134.877    
          134.786         134.856         134.937         134.996         134.926         134.993         135.097         135.222         135.339         135.449    
          135.554         135.655         135.755         135.855         135.957         136.064         136.176         136.293         136.415         136.543    
          136.674         136.809         136.947         137.086         137.228         137.372         137.515         137.657         137.800         137.944    
          138.095         138.251         138.413         138.577         138.740         138.901         139.070         139.258         139.456         139.646    
          139.829         140.019         140.220         140.430         140.646         140.866         141.086         141.265         133.608         133.618    
          133.634         133.653         133.673         133.694         133.716         133.738         133.762         133.785         133.810         133.835    
          133.861         133.887         133.915         133.943         133.972         134.003         134.036         134.070         134.104         134.140    
          134.177         134.216         134.255         134.295         134.336         134.378         134.420         134.463         134.508         134.545    
          134.589         134.562         134.602         134.683         134.785         134.839         134.867         134.836         134.868         134.787    
          134.836         134.868         134.840         134.867         134.920         134.988         134.918         134.983         135.056         135.106    
          135.046         135.104         135.195         135.307         135.411         135.512         135.610         135.708         135.806         135.908    
          136.016         136.132         136.255         136.384         136.519         136.657         136.798         136.942         137.088         137.232    
          137.376         137.520         137.664         137.809         137.957         138.109         138.268         138.432         138.599         138.723    
          138.791         138.728         138.805         138.924         139.096         139.281         139.426         139.505         139.426         139.493    
          139.528         139.496         139.530         139.603         139.679         139.598         139.683         139.818         140.002         140.193    
          140.392         140.601         140.816         141.032         141.206         133.611         133.623         133.638         133.657         133.677    
          133.699         133.721         133.744         133.768         133.793         133.819         133.845         133.872         133.899         133.919    
          133.931         133.923         133.937         133.956         133.988         134.020         134.054         134.089         134.125         134.163    
          134.202         134.242         134.283         134.326         134.371         134.417         134.463         134.511         134.561         134.593    
          134.627         134.620         134.651         134.678         134.728         134.699         134.752         134.794         134.858         134.812    
          134.863         134.907         134.932         134.908         134.933         134.981         134.924         134.981         135.029         135.053    
          135.027         135.051         135.097         135.037         135.093         135.157         135.201         135.147         135.197         135.278    
          135.377         135.472         135.565         135.658         135.754         135.855         135.965         136.085         136.216         136.354    
          136.497         136.643         136.792         136.943         137.093         137.207         137.267         137.206         137.275         137.383    
          137.528         137.673         137.820         137.970         138.125         138.285         138.451         138.620         138.740         138.800    
          138.832         138.804         138.836         138.753         138.824         138.904         138.973         138.916         138.983         139.118    
          139.299         139.431         139.516         139.435         139.518         139.581         139.615         139.582         139.616         139.682    
          139.601         139.684         139.813         139.989         140.171         140.362         140.564         140.774         140.984         141.155    
          133.614         133.628         133.643         133.661         133.681         133.703         133.726         133.750         133.774         133.800    
          133.827         133.854         133.882         133.903         133.914         133.907         133.919         133.925         133.930         133.927    
          133.933         133.943         133.935         133.947         133.970         134.002         134.036         134.072         134.108         134.146    
          134.185         134.226         134.268         134.311         134.357         134.405         134.455         134.506         134.559         134.615    
          134.680         134.731         134.776         134.752         134.795         134.859         134.933         134.974         134.994         134.975    
          134.996         134.939         134.988         135.036         135.090         135.037         135.087         135.131         135.151         135.130    
          135.149         135.186         135.137         135.178         135.255         135.345         135.431         135.518         135.606         135.697    
          135.797         135.908         136.033         136.173         136.323         136.477         136.632         136.789         136.948         137.069    
          137.131         137.073         137.136         137.194         137.223         137.196         137.226         137.282         137.220         137.286    
          137.361         137.422         137.348         137.376         137.350         137.378         137.431         137.538         137.685         137.834    
          137.986         138.142         138.304         138.470         138.638         138.803         138.971         139.102         139.177         139.106    
          139.170         139.204         139.175         139.209         139.272         139.349         139.275         139.360         139.440         139.504    
          139.538         139.506         139.539         139.445         139.527         139.604         139.684         139.614         139.682         139.812    
          139.979         140.154         140.340         140.535         140.740         140.947         141.117         133.636         133.649         133.666    
          133.685         133.707         133.730         133.754         133.780         133.806         133.833         133.862         133.891         133.920    
          133.951         133.983         134.017         134.052         134.089         134.128         134.167         134.208         134.250         134.294    
          134.340         134.388         134.439         134.491         134.545         134.603         134.663         134.729         134.777         134.816    
          134.792         134.831         134.886         134.949         134.983         135.000         134.984         135.002         134.957         134.995    
          135.037         135.084         135.040         135.083         135.149         135.233         135.314         135.392         135.470         135.551    
          135.637         135.733         135.845         135.977         136.129         136.293         136.460         136.626         136.789         136.952    
          137.110         137.264         137.371         137.440         137.383         137.442         137.553         137.701         137.850         138.002    
          138.160         138.323         138.491         138.620         138.690         138.623         138.684         138.716         138.688         138.720    
          138.780         138.853         138.783         138.864         138.946         139.023         138.951         139.036         139.093         139.130    
          139.094         139.136         139.199         139.099         139.143         139.104         139.147         139.189         139.226         139.191    
          139.232         139.284         139.367         139.272         139.307         139.275         139.314         139.374         139.450         139.532    
          139.455         139.535         139.655         139.782         139.851         139.780         139.840         139.872         139.841         139.873    
          139.940         140.008         139.940         140.007         140.143         140.325         140.516         140.718         140.921         141.088    
          133.656         133.671         133.689         133.710         133.733         133.758         133.784         133.811         133.839         133.869    
          133.899         133.930         133.962         133.996         134.031         134.068         134.106         134.146         134.187         134.229    
          134.273         134.319         134.368         134.418         134.471         134.525         134.582         134.641         134.703         134.747    
          134.775         134.760         134.794         134.811         134.847         134.827         134.859         134.908         134.986         135.044    
          135.084         135.048         135.082         135.126         135.157         135.114         135.129         135.113         135.128         135.156    
          135.214         135.286         135.357         135.428         135.503         135.582         135.664         135.708         135.638         135.684    
          135.770         135.824         135.739         135.801         135.901         135.966         135.873         135.952         136.089         136.269    
          136.449         136.624         136.795         136.962         137.124         137.278         137.426         137.571         137.718         137.867    
          138.021         138.179         138.342         138.508         138.630         138.711         138.638         138.702         138.735         138.705    
          138.739         138.793         138.873         138.805         138.876         138.959         139.047         138.967         139.035         139.071    
          139.036         139.077         139.110         139.151         139.117         139.153         139.195         139.237         139.201         139.238    
          139.140         139.226         139.279         139.319         139.283         139.323         139.383         139.289         139.328         139.294    
          139.329         139.371         139.405         139.374         139.407         139.445         139.476         139.448         139.479         139.539    
          139.472         139.540         139.663         139.781         139.857         139.789         139.854         139.977         140.145         140.322    
          140.509         140.707         140.907         141.072         133.678         133.694         133.714         133.737         133.761         133.788    
          133.816         133.845         133.875         133.907         133.939         133.973         134.008         134.045         134.083         134.123    
          134.165         134.207         134.251         134.297         134.345         134.395         134.447         134.501         134.557         134.615    
          134.674         134.737         134.778         134.809         134.793         134.821         134.841         134.873         134.856         134.883    
          134.909         134.938         134.918         134.951         134.999         135.069         135.121         135.155         135.122         135.155    
          135.203         135.266         135.331         135.389         135.418         135.378         135.412         135.471         135.537         135.571    
          135.527         135.566         135.618         135.666         135.611         135.659         135.721         135.784         135.714         135.776    
          135.844         135.874         135.839         135.869         135.935         135.847         135.930         136.068         136.260         136.450    
          136.631         136.808         136.980         137.106         137.171         137.114         137.179         137.256         137.321         137.244    
          137.274         137.247         137.277         137.333         137.442         137.589         137.736         137.887         138.041         138.200    
          138.362         138.526         138.645         138.728         138.654         138.736         138.855         138.978         139.041         139.082    
          139.047         139.083         138.984         139.072         139.148         139.233         139.158         139.222         139.255         139.225    
          139.258         139.315         139.396         139.321         139.403         139.518         139.676         139.832         139.989         140.153    
          140.326         140.511         140.707         140.905         141.071         133.702         133.719         133.741         133.765         133.791    
          133.820         133.850         133.881         133.914         133.948         133.983         134.020         134.058         134.098         134.140    
          134.183         134.227         134.273         134.320         134.369         134.421         134.474         134.529         134.586         134.644    
          134.704         134.766         134.829         134.893         134.934         134.965         134.949         134.978         135.001         135.028    
          135.015         135.043         135.066         135.093         135.078         135.104         135.127         135.159         135.139         135.166    
          135.192         135.217         135.200         135.225         135.251         135.277         135.259         135.285         135.313         135.339    
          135.322         135.350         135.376         135.403         135.419         135.405         135.421         135.390         135.423         135.452    
          135.486         135.467         135.501         135.529         135.569         135.547         135.583         135.615         135.663         135.632    
          135.680         135.717         135.779         135.733         135.794         135.851         135.935         135.865         135.945         136.073    
          136.269         136.464         136.650         136.827         136.997         137.159         137.271         137.346         137.281         137.356    
          137.463         137.610         137.758         137.909         138.065         138.224         138.385         138.549         138.668         138.750    
          138.679         138.742         138.775         138.746         138.779         138.836         138.902         138.845         138.913         138.992    
          139.081         139.004         139.072         139.107         139.076         139.111         139.166         139.247         139.179         139.252    
          139.333         139.395         139.428         139.398         139.431         139.345         139.418         139.497         139.563         139.507    
          139.572         139.691         139.848         140.004         140.167         140.340         140.526         140.718         140.912         141.077    
          133.727         133.746         133.769         133.795         133.824         133.854         133.886         133.920         133.955         133.992    
          134.031         134.071         134.113         134.156         134.201         134.247         134.294         134.342         134.393         134.446    
          134.500         134.555         134.613         134.672         134.733         134.796         134.860         134.924         134.989         135.054    
          135.118         135.181         135.245         135.310         135.380         135.454         135.528         135.610         135.664         135.707    
          135.698         135.740         135.759         135.817         135.796         135.845         135.886         135.964         135.915         135.987    
          136.055         136.133         136.069         136.156         136.294         136.490         136.678         136.855         137.026         137.149    
          137.214         137.159         137.215         137.246         137.222         137.253         137.294         137.368         137.312         137.375    
          137.487         137.635         137.783         137.934         138.092         138.254         138.416         138.577         138.693         138.770    
          138.709         138.776         138.900         139.019         139.101         139.035         139.106         139.231         139.397         139.557    
          139.715         139.869         140.024         140.187         140.360         140.545         140.738         140.932         141.095         133.755    
          133.775         133.800         133.828         133.858         133.891         133.926         133.963         134.001         134.042         134.083    
          134.127         134.172         134.218         134.266         134.314         134.364         134.416         134.470         134.525         134.582    
          134.640         134.700         134.762         134.826         134.891         134.958         135.026         135.096         135.168         135.240    
          135.313         135.386         135.462         135.505         135.536         135.537         135.573         135.614         135.698         135.786    
          135.887         135.958         136.024         135.998         136.069         136.100         136.187         136.146         136.215         136.343    
          136.534         136.718         136.893         137.063         137.177         137.250         137.197         137.261         137.370         137.518    
          137.666         137.814         137.966         138.126         138.288         138.450         138.610         138.770         138.933         139.094    
          139.258         139.422         139.585         139.741         139.895         140.051         140.213         140.386         140.570         140.762    
          140.959         141.121         133.784         133.806         133.833         133.863         133.896         133.932         133.969         134.009    
          134.052         134.095         134.140         134.187         134.235         134.284         134.334         134.386         134.439         134.494    
          134.550         134.608         134.667         134.728         134.791         134.857         134.925         134.995         135.067         135.142    
          135.221         135.302         135.382         135.464         135.512         135.541         135.546         135.581         135.564         135.580    
          135.582         135.598         135.622         135.625         135.658         135.707         135.796         135.889         135.947         135.990    
          135.991         136.046         136.052         136.121         136.106         136.168         136.251         136.419         136.596         136.771    
          136.943         137.108         137.264         137.372         137.432         137.385         137.455         137.557         137.706         137.852    
          138.005         138.165         138.329         138.492         138.652         138.813         138.974         139.131         139.290         139.453    
          139.615         139.771         139.925         140.082         140.245         140.418         140.600         140.793         140.990         141.154    
          133.817         133.840         133.868         133.901         133.937         133.976         134.017         134.061         134.106         134.153    
          134.201         134.251         134.302         134.354         134.407         134.462         134.518         134.575         134.634         134.694    
          134.756         134.821         134.889         134.960         135.033         135.109         135.190         135.275         135.365         135.453    
          135.542         135.630         135.718         135.809         135.901         135.996         136.051         136.104         136.099         136.158    
          136.164         136.228         136.217         136.275         136.352         136.505         136.671         136.838         137.002         137.166    
          137.276         137.335         137.300         137.362         137.390         137.419         137.401         137.430         137.481         137.441    
          137.501         137.607         137.755         137.900         138.051         138.211         138.377         138.541         138.702         138.862    
          139.019         139.173         139.327         139.488         139.648         139.803         139.958         140.116         140.281         140.454    
          140.636         140.829         141.027         141.193         133.851         133.876         133.907         133.942         133.982         134.024    
          134.070         134.105         134.124         134.109         134.129         134.150         134.172         134.148         134.158         134.150    
          134.160         134.178         134.214         134.266         134.320         134.374         134.429         134.485         134.542         134.601    
          134.661         134.722         134.786         134.853         134.924         134.998         135.075         135.156         135.242         135.335    
          135.432         135.530         135.629         135.727         135.822         135.917         136.012         136.107         136.161         136.214    
          136.209         136.242         136.265         136.262         136.284         136.271         136.333         136.318         136.375         136.450    
          136.596         136.754         136.912         137.071         137.229         137.379         137.523         137.671         137.817         137.960    
          138.109         138.266         138.429         138.594         138.755         138.912         139.065         139.216         139.369         139.526    
          139.683         139.838         139.994         140.154         140.321         140.495         140.676         140.869         141.067         141.232    
          133.887         133.915         133.949         133.988         134.031         134.077         134.126         134.161         134.185         134.167    
          134.188         134.227         134.281         134.336         134.392         134.449         134.507         134.566         134.627         134.688    
          134.751         134.817         134.887         134.961         135.039         135.121         135.208         135.301         135.402         135.509    
          135.619         135.727         135.830         135.931         135.984         136.022         136.036         136.083         136.079         136.123    
          136.114         136.132         136.140         136.157         136.177         136.219         136.267         136.313         136.316         136.361    
          136.368         136.429         136.416         136.470         136.546         136.690         136.839         136.994         137.149         137.303    
          137.453         137.598         137.744         137.888         138.028         138.175         138.325         138.484         138.649         138.807    
          138.960         139.111         139.262         139.413         139.568         139.722         139.876         140.035         140.197         140.363    
          140.538         140.719         140.911         141.110         141.275         133.928         133.959         133.996         134.039         134.085    
          134.135         134.186         134.239         134.295         134.352         134.410         134.470         134.530         134.591         134.653    
          134.717         134.782         134.851         134.924         135.002         135.084         135.173         135.268         135.370         135.480    
          135.599         135.718         135.834         135.946         136.053         136.157         136.202         136.246         136.259         136.295    
          136.337         136.422         136.472         136.524         136.520         136.575         136.592         136.650         136.639         136.678    
          136.704         136.698         136.724         136.727         136.791         136.768         136.834         136.926         137.028         137.092    
          137.058         137.131         137.228         137.382         137.534         137.631         137.691         137.661         137.735         137.773    
          137.836         137.809         137.876         137.962         138.100         138.197         138.256         138.218         138.289         138.336    
          138.401         138.340         138.369         138.351         138.380         138.430         138.540         138.657         138.722         138.673    
          138.749         138.856         139.007         139.158         139.309         139.459         139.611         139.764         139.920         140.080    
          140.242         140.408         140.582         140.764         140.957         141.155         141.318         133.973         134.008         134.049    
          134.095         134.144         134.196         134.250         134.307         134.366         134.427         134.489         134.552         134.616    
          134.681         134.747         134.816         134.888         134.964         135.047         135.135         135.232         135.336         135.449    
          135.572         135.704         135.835         135.964         136.083         136.192         136.292         136.377         136.418         136.452    
          136.463         136.500         136.536         136.582         136.631         136.630         136.661         136.683         136.682         136.703    
          136.688         136.750         136.738         136.776         136.801         136.795         136.821         136.815         136.886         136.863    
          136.933         136.963         137.025         137.004         137.073         137.077         137.108         137.096         137.126         137.176    
          137.149         137.209         137.312         137.468         137.569         137.629         137.602         137.675         137.681         137.711    
          137.699         137.728         137.777         137.748         137.821         137.851         137.897         137.926         137.913         137.941    
          137.890         137.957         137.990         138.047         138.024         138.086         138.121         138.177         138.151         138.215    
          138.248         138.318         138.282         138.350         138.389         138.465         138.420         138.493         138.596         138.701    
          138.757         138.788         138.768         138.799         138.723         138.802         138.858         138.923         138.878         138.948    
          139.052         139.204         139.314         139.379         139.329         139.407         139.464         139.527         139.490         139.553    
          139.614         139.680         139.641         139.707         139.769         139.837         139.797         139.866         139.927         139.992    
          139.955         140.020         140.082         140.150         140.110         140.177         140.242         140.314         140.265         140.344    
          140.407         140.481         140.429         140.511         140.578         140.655         140.598         140.682         140.809         141.002    
          141.201         141.364         134.027         134.063         134.106         134.154         134.206         134.261         134.319         134.380    
          134.443         134.508         134.574         134.641         134.710         134.779         134.852         134.927         135.009         135.097    
          135.193         135.300         135.415         135.543         135.683         135.828         135.972         136.107         136.225         136.331    
          136.423         136.460         136.485         136.511         136.541         136.502         136.517         136.525         136.540         136.561    
          136.578         136.607         136.644         136.687         136.732         136.730         136.781         136.787         136.846         136.835    
          136.895         136.912         136.956         136.983         136.975         137.002         136.959         137.025         137.048         137.121    
          137.096         137.154         137.251         137.404         137.555         137.649         137.720         137.686         137.761         137.793    
          137.840         137.868         137.855         137.883         137.831         137.898         137.928         137.994         137.965         138.008    
          138.033         138.022         138.048         138.058         138.101         138.125         138.113         138.138         138.068         138.094    
          138.083         138.108         138.151         138.184         138.228         138.254         138.240         138.266         138.220         138.276    
          138.314         138.362         138.389         138.374         138.401         138.325         138.353         138.339         138.366         138.412    
          138.452         138.526         138.483         138.553         138.651         138.752         138.826         138.772         138.849         138.902    
          138.975         138.929         138.994         139.056         139.119         139.080         139.144         139.205         139.270         139.231    
          139.297         139.353         139.431         139.383         139.449         139.560         139.718         139.876         140.032         140.189    
          140.297         140.373         140.327         140.397         140.456         140.538         140.488         140.562         140.626         140.711    
          140.656         140.732         140.809         140.887         140.827         140.914         141.048         141.246         141.411         134.083    
          134.121         134.166         134.217         134.272         134.331         134.393         134.458         134.526         134.596         134.667    
          134.740         134.814         134.891         134.973         135.060         135.156         135.262         135.379         135.509         135.654    
          135.809         135.964         136.111         136.245         136.362         136.460         136.542         136.609         136.672         136.707    
          136.737         136.742         136.764         136.781         136.782         136.801         136.779         136.809         136.829         136.827    
          136.847         136.824         136.873         136.881         136.942         136.928         136.988         137.005         137.074         137.052    
          137.114         137.197         137.346         137.494         137.641         137.734         137.779         137.806         137.792         137.820    
          137.770         137.830         137.867         137.933         137.905         137.962         137.979         138.003         137.992         138.016    
          138.058         138.030         138.092         138.120         138.185         138.152         138.212         138.295         138.380         138.446    
          138.406         138.476         138.516         138.588         138.546         138.617         138.664         138.721         138.692         138.749    
          138.797         138.871         138.828         138.890         138.999         139.155         139.311         139.469         139.626         139.786    
          139.947         140.103         140.254         140.409         140.568         140.733         140.856         140.942         140.880         140.957    
          141.043         141.125         141.058         141.150         141.289         141.449         134.142         134.182         134.229         134.283    
          134.342         134.406         134.473         134.544         134.618         134.695         134.772         134.852         134.935         135.023    
          135.118         135.224         135.340         135.471         135.614         135.773         135.937         136.097         136.245         136.374    
          136.485         136.576         136.651         136.714         136.738         136.758         136.777         136.788         136.799         136.807    
          136.818         136.787         136.806         136.825         136.823         136.842         136.830         136.846         136.865         136.865    
          136.882         136.868         136.899         136.919         136.916         136.937         136.910         136.963         136.974         137.035    
          137.025         137.078         137.076         137.102         137.095         137.120         137.162         137.145         137.197         137.286    
          137.430         137.574         137.718         137.855         137.987         138.069         138.106         138.129         138.118         138.141    
          138.099         138.151         138.183         138.245         138.217         138.268         138.355         138.440         138.507         138.468    
          138.540         138.577         138.647         138.613         138.670         138.766         138.913         139.070         139.229         139.387    
          139.546         139.705         139.865         140.021         140.172         140.322         140.472         140.623         140.779         140.949    
          141.081         141.174         141.098         141.180         141.280         141.360         141.289         141.369         141.448         141.456    
          134.203         134.245         134.296         134.354         134.418         134.487         134.562         134.641         134.723         134.808    
          134.895         134.985         135.081         135.187         135.302         135.430         135.573         135.728         135.897         136.067    
          136.231         136.377         136.503         136.609         136.696         136.766         136.821         136.832         136.852         136.880    
          136.904         136.878         136.909         136.933         136.959         136.957         137.013         137.007         137.056         137.120    
          137.240         137.372         137.513         137.654         137.792         137.926         138.055         138.174         138.294         138.422    
          138.507         138.576         138.536         138.605         138.694         138.841         138.994         139.153         139.312         139.470    
          139.631         139.794         139.954         140.106         140.253         140.398         140.538         140.677         140.822         140.977    
          141.147         141.328         141.478         134.267         134.312         134.367         134.430         134.502         134.580         134.665    
          134.755         134.847         134.942         135.043         135.150         135.267         135.396         135.537         135.693         135.863    
          136.042         136.216         136.379         136.519         136.639         136.739         136.822         136.885         136.933         136.980    
          137.033         137.068         137.114         137.114         137.159         137.217         137.334         137.462         137.596         137.731    
          137.866         137.998         138.123         138.241         138.364         138.451         138.504         138.478         138.547         138.575    
          138.645         138.618         138.675         138.773         138.927         139.086         139.250         139.412         139.573         139.739    
          139.906         140.064         140.213         140.352         140.483         140.607         140.729         140.855         140.990         141.141    
          141.317         141.467         134.335         134.383         134.445         134.517         134.600         134.692         134.789         134.891    
          134.998         135.111         135.233         135.365         135.509         135.666         135.840         136.023         136.206         136.381    
          136.540         136.674         136.783         136.875         136.951         137.008         137.055         137.102         137.154         137.180    
          137.219         137.232         137.271         137.272         137.317         137.321         137.366         137.430         137.552         137.679    
          137.810         137.940         138.027         138.080         138.054         138.120         138.150         138.199         138.186         138.237    
          138.268         138.319         138.306         138.358         138.390         138.445         138.431         138.488         138.518         138.589    
          138.565         138.622         138.718         138.872         139.030         139.195         139.364         139.535         139.703         139.876    
          140.047         140.206         140.348         140.471         140.583         140.684         140.780         140.879         140.983         141.105    
          141.299         141.450         134.407         134.463         134.536         134.622         134.721         134.828         134.943         135.064    
          135.194         135.333         135.484         135.648         135.824         136.006         136.194         136.378         136.551         136.704    
          136.833         136.940         137.024         137.092         137.145         137.189         137.231         137.279         137.342         137.381    
          137.423         137.430         137.473         137.480         137.529         137.527         137.576         137.642         137.765         137.846    
          137.898         137.878         137.944         137.969         138.021         138.012         138.065         138.091         138.158         138.135    
          138.189         138.270         138.396         138.529         138.674         138.827         138.984         139.148         139.322         139.505    
          139.690         139.871         140.055         140.228         140.378         140.506         140.609         140.692         140.767         140.828    
          140.898         140.957         140.997         134.491         134.561         134.649         134.754         134.873         135.003         135.143    
          135.293         135.455         135.629         135.810         135.996         136.185         136.377         136.562         136.732         136.879    
          137.002         137.104         137.187         137.252         137.298         137.335         137.370         137.413         137.470         137.546    
          137.589         137.634         137.641         137.689         137.692         137.738         137.747         137.795         137.806         137.857    
          137.862         137.915         137.927         137.994         137.983         138.036         138.112         138.239         138.370         138.500    
          138.641         138.790         138.945         139.106         139.282         139.479         139.683         139.886         140.086         140.270    
          140.435         140.579         140.695         140.774         140.818         140.872         140.874         140.928         134.597         134.684    
          134.794         134.925         135.074         135.238         135.413         135.601         135.794         135.987         136.182         136.380    
          136.576         136.762         136.929         137.071         137.189         137.286         137.365         137.427         137.471         137.503    
          137.532         137.570         137.621         137.694         137.774         137.879         137.998         138.119         138.242         138.369    
          138.496         138.628         138.766         138.915         139.074         139.245         139.442         139.668         139.902         140.122    
          140.324         140.509         140.673         140.820         140.932         140.988         140.944         141.040         134.732         134.842    
          134.986         135.159         135.351         135.555         135.765         135.972         136.178         136.386         136.592         136.794    
          136.982         137.146         137.282         137.393         137.485         137.560         137.621         137.668         137.703         137.732    
          137.764         137.813         137.890         137.973         138.078         138.191         138.304         138.421         138.540         138.656    
          138.778         138.910         139.061         139.228         139.411         139.622         139.883         140.134         140.371         140.586    
          140.774         140.938         141.113         141.247         141.319         134.905         135.062         135.263         135.488         135.719    
          135.942         136.163         136.384         136.605         136.822         137.032         137.221         137.381         137.511         137.613    
          137.700         137.773         137.844         137.903         137.946         137.981         138.023         138.101         138.205         138.304    
          138.407         138.500         138.592         138.687         138.776         138.863         138.967         139.085         139.236         139.406    
          139.594         139.795         140.086         140.375         140.645         140.883         141.075         141.209         135.165         135.392    
          135.651         135.897         136.131         136.365         136.602         136.838         137.069         137.290         137.482         137.638    
          137.758         137.848         137.932         137.995         138.100         138.197         138.251         138.288         138.350         138.481    
          138.653         138.778         138.872         138.946         138.995         139.046         139.079         139.107         139.174         139.269    
          139.414         139.585         139.751         139.862         135.561         135.844         136.091         136.329         136.574         136.829    
          137.085         137.335         137.570         137.767         137.923         138.028         138.094         138.188         138.186         138.400    
          136.071         136.300         136.527         136.782         137.060         137.343         137.625         137.883         138.097         138.255    
          138.339         138.322         138.549         136.510         136.698         136.970         137.292         137.618         137.959         138.254    
          138.495         138.666         138.761    
1
  HEAD IN LAYER   3 AT END OF TIME STEP   1 IN STRESS PERIOD    1
  ---------------------------------------------------------------------------

                1               2               3               4               5               6               7               8               9              10
               11              12              13              14              15              16              17              18              19              20
               21              22              23              24              25              26              27              28              29              30
               31              32              33              34              35              36              37              38              39              40
               41              42              43              44              45              46              47              48              49              50
               51              52              53              54              55              56              57              58              59              60
               61              62              63              64              65              66              67              68              69              70
               71              72              73              74              75              76              77              78              79              80
               81              82              83              84              85              86              87              88              89              90
               91              92              93              94              95              96              97              98              99             100
              101             102             103             104             105             106             107             108             109             110
              111             112             113             114             115             116             117             118             119             120
              121             122             123             124             125             126             127             128             129             130
              131             132             133             134             135             136             137             138             139             140
              141             142             143             144             145             146             147             148             149             150
              151             152             153             154             155             156             157             158             159             160
              161             162             163             164             165             166             167             168             169             170
              171             172             173             174             175             176             177             178             179             180
              181             182             183             184             185             186             187             188             189             190
              191             192             193             194             195             196             197             198             199             200
              201             202             203             204             205             206             207             208             209             210
              211             212             213             214             215             216             217             218             219             220
              221             222             223             224             225             226             227             228             229             230
              231             232             233             234             235             236             237             238             239             240
              241             242             243             244             245             246             247             248             249             250
              251             252             253             254             255             256             257             258             259             260
              261             262             263             264             265             266             267             268             269             270
              271             272             273             274             275             276             277             278             279             280
              281             282             283             284             285             286             287             288             289             290
              291             292             293             294             295             296             297             298             299             300
              301             302             303             304             305             306             307             308             309             310
              311             312             313             314             315             316             317             318             319             320
              321             322             323             324             325             326             327             328             329             330
              331             332             333             334             335             336             337             338             339             340
              341             342             343             344             345             346             347             348             349             350
              351             352             353             354             355             356             357             358             359             360
              361             362             363             364             365             366             367             368             369             370
              371             372             373             374             375             376             377             378             379             380
              381             382             383             384             385             386             387             388             389             390
              391             392             393             394             395             396             397             398             399             400
              401             402             403             404             405             406             407             408             409             410
              411             412             413             414             415             416             417             418             419             420
              421             422             423             424             425             426             427             428             429             430
              431             432             433             434             435             436             437             438             439             440
              441             442             443             444             445             446             447             448             449             450
              451             452             453             454             455             456             457             458             459             460
              461             462             463             464             465             466             467             468             469             470
              471             472             473             474             475             476             477             478             479             480
              481             482             483             484             485             486             487             488             489             490
              491             492             493             494             495             496             497             498             499             500
              501             502             503             504             505             506             507             508             509             510
              511             512             513             514             515             516             517             518             519             520
              521             522             523             524             525             526             527             528             529             530
              531             532             533             534             535             536             537             538             539             540
              541             542             543             544             545             546             547             548             549             550
              551             552             553             554             555             556             557             558             559             560
              561             562             563             564             565             566             567             568             569             570
              571             572             573             574             575             576             577             578             579             580
              581             582             583             584             585             586             587             588             589             590
              591             592             593             594             595             596             597             598             599             600
              601             602             603             604             605             606             607             608             609             610
              611             612             613             614             615             616             617             618             619             620
              621             622             623             624             625             626             627             628             629             630
              631             632             633             634             635             636             637             638             639             640
              641             642             643             644             645             646             647             648             649             650
              651             652             653             654             655             656             657             658             659             660
              661             662             663             664             665             666             667             668             669             670
              671             672             673             674             675             676             677             678             679             680
              681             682             683             684             685             686             687             688             689             690
              691             692             693             694             695             696             697             698             699             700
              701             702             703             704             705             706             707             708             709             710
              711             712             713             714             715             716             717             718             719             720
              721             722             723             724             725             726             727             728             729             730
              731             732             733             734             735             736             737             738             739             740
              741             742             743             744             745             746             747             748             749             750
              751             752             753             754             755             756             757             758             759             760
              761             762             763             764             765             766             767             768             769             770
              771             772             773             774             775             776             777             778             779             780
              781             782             783             784             785             786             787             788             789             790
              791             792             793             794             795             796             797             798             799             800
              801             802             803             804             805             806             807             808             809             810
              811             812             813             814             815             816             817             818             819             820
              821             822             823             824             825             826             827             828             829             830
              831             832             833             834             835             836             837             838             839             840
              841             842             843             844             845             846             847             848             849             850
              851             852             853             854             855             856             857             858             859             860
              861             862             863             864             865             866             867             868             869             870
              871             872             873             874             875             876             877             878             879             880
              881             882             883             884             885             886             887             888             889             890
              891             892             893             894             895             896             897             898             899             900
              901             902             903             904             905             906             907             908             909             910
              911             912             913             914             915             916             917             918             919             920
              921             922             923             924             925             926             927             928             929             930
              931             932             933             934             935             936             937             938             939             940
              941             942             943             944             945             946             947             948             949             950
              951             952             953             954             955             956             957             958             959             960
              961             962             963             964             965             966             967             968             969             970
              971             972             973             974             975             976             977             978             979             980
              981             982             983             984             985             986             987             988             989             990
              991             992             993             994             995             996             997             998             999            1000
             1001            1002            1003            1004            1005            1006            1007            1008            1009            1010
             1011            1012            1013            1014            1015            1016            1017            1018            1019            1020
             1021            1022            1023            1024            1025            1026            1027            1028            1029            1030
             1031            1032            1033            1034            1035            1036            1037            1038            1039            1040
             1041            1042            1043            1044            1045            1046            1047            1048            1049            1050
             1051            1052            1053            1054            1055            1056            1057            1058            1059            1060
             1061            1062            1063            1064            1065            1066            1067            1068            1069            1070
             1071            1072            1073            1074            1075            1076            1077            1078            1079            1080
             1081            1082            1083            1084            1085            1086            1087            1088            1089            1090
             1091            1092            1093            1094            1095            1096            1097            1098            1099            1100
             1101            1102            1103            1104            1105            1106            1107            1108            1109            1110
             1111            1112            1113            1114            1115            1116            1117            1118            1119            1120
             1121            1122            1123            1124            1125            1126            1127            1128            1129            1130
             1131            1132            1133            1134            1135            1136            1137            1138            1139            1140
             1141            1142            1143            1144            1145            1146            1147            1148            1149            1150
             1151            1152            1153            1154            1155            1156            1157            1158            1159            1160
             1161            1162            1163            1164            1165            1166            1167            1168            1169            1170
             1171            1172            1173            1174            1175            1176            1177            1178            1179            1180
             1181            1182            1183            1184            1185            1186            1187            1188            1189            1190
             1191            1192            1193            1194            1195            1196            1197            1198            1199            1200
             1201            1202            1203            1204            1205            1206            1207            1208            1209            1210
             1211            1212            1213            1214            1215            1216            1217            1218            1219            1220
             1221            1222            1223            1224            1225            1226            1227            1228            1229            1230
             1231            1232            1233            1234            1235            1236            1237            1238            1239            1240
             1241            1242            1243            1244            1245            1246            1247            1248            1249            1250
             1251            1252            1253            1254            1255            1256            1257            1258            1259            1260
             1261            1262            1263            1264            1265            1266            1267            1268            1269            1270
             1271            1272            1273            1274            1275            1276            1277            1278            1279            1280
             1281            1282            1283            1284            1285            1286            1287            1288            1289            1290
             1291            1292            1293            1294            1295            1296            1297            1298            1299            1300
             1301            1302            1303            1304            1305            1306            1307            1308            1309            1310
             1311            1312            1313            1314            1315            1316            1317            1318            1319            1320
             1321            1322            1323            1324            1325            1326            1327            1328            1329            1330
             1331            1332            1333            1334            1335            1336            1337            1338            1339            1340
             1341            1342            1343            1344            1345            1346            1347            1348            1349            1350
             1351            1352            1353            1354            1355            1356            1357            1358            1359            1360
             1361            1362            1363            1364            1365            1366            1367            1368            1369            1370
             1371            1372            1373            1374            1375            1376            1377            1378            1379            1380
             1381            1382            1383            1384            1385            1386            1387            1388            1389            1390
             1391            1392            1393            1394            1395            1396            1397            1398            1399            1400
             1401            1402            1403            1404            1405            1406            1407            1408            1409            1410
             1411            1412            1413            1414            1415            1416            1417            1418            1419            1420
             1421            1422            1423            1424            1425            1426            1427            1428            1429            1430
             1431            1432            1433            1434            1435            1436            1437            1438            1439            1440
             1441            1442            1443            1444            1445            1446            1447            1448            1449            1450
             1451            1452            1453            1454            1455            1456            1457            1458            1459            1460
             1461            1462            1463            1464            1465            1466            1467            1468            1469            1470
             1471            1472            1473            1474            1475            1476            1477            1478            1479            1480
             1481            1482            1483            1484            1485            1486            1487            1488            1489            1490
             1491            1492            1493            1494            1495            1496            1497            1498            1499            1500
             1501            1502            1503            1504            1505            1506            1507            1508            1509            1510
             1511            1512            1513            1514            1515            1516            1517            1518            1519            1520
             1521            1522            1523            1524            1525            1526            1527            1528            1529            1530
             1531            1532            1533            1534            1535            1536            1537            1538            1539            1540
             1541            1542            1543            1544            1545            1546            1547            1548            1549            1550
             1551            1552            1553            1554            1555            1556            1557            1558            1559            1560
             1561            1562            1563            1564            1565            1566            1567            1568            1569            1570
             1571            1572            1573            1574            1575            1576            1577            1578            1579            1580
             1581            1582            1583            1584            1585            1586            1587            1588            1589            1590
             1591            1592            1593            1594            1595            1596            1597            1598            1599            1600
             1601            1602            1603            1604            1605            1606            1607            1608            1609            1610
             1611            1612            1613            1614            1615            1616            1617            1618            1619            1620
             1621            1622            1623            1624            1625            1626            1627            1628            1629            1630
             1631            1632            1633            1634            1635            1636            1637            1638            1639            1640
             1641            1642            1643            1644            1645            1646            1647            1648            1649            1650
             1651            1652            1653            1654            1655            1656            1657            1658            1659            1660
             1661            1662            1663            1664            1665            1666            1667            1668            1669            1670
             1671            1672            1673            1674            1675            1676            1677            1678            1679            1680
             1681            1682            1683            1684            1685            1686            1687            1688            1689            1690
             1691            1692            1693            1694            1695            1696            1697            1698            1699            1700
             1701            1702            1703            1704            1705            1706            1707            1708            1709            1710
             1711            1712            1713            1714            1715            1716            1717            1718            1719            1720
             1721            1722            1723            1724            1725            1726            1727            1728            1729            1730
             1731            1732            1733            1734            1735            1736            1737            1738            1739            1740
             1741            1742            1743            1744            1745            1746            1747            1748            1749            1750
             1751            1752            1753            1754            1755            1756            1757            1758            1759            1760
             1761            1762            1763            1764            1765            1766            1767            1768            1769            1770
             1771            1772            1773            1774            1775            1776            1777            1778            1779            1780
             1781            1782            1783            1784            1785            1786            1787            1788            1789            1790
             1791            1792            1793            1794            1795            1796            1797            1798            1799            1800
             1801            1802            1803            1804            1805            1806            1807            1808            1809            1810
             1811            1812            1813            1814            1815            1816            1817            1818            1819            1820
             1821            1822            1823            1824            1825            1826            1827            1828            1829            1830
             1831            1832            1833            1834            1835            1836            1837            1838            1839            1840
             1841            1842            1843            1844            1845            1846            1847            1848            1849            1850
             1851            1852            1853            1854            1855            1856            1857            1858            1859            1860
             1861            1862            1863            1864            1865            1866            1867            1868            1869            1870
             1871            1872            1873            1874            1875            1876            1877            1878            1879            1880
             1881            1882            1883            1884            1885            1886            1887            1888            1889            1890
             1891            1892            1893            1894            1895            1896            1897            1898            1899            1900
             1901            1902            1903            1904            1905            1906            1907            1908            1909            1910
             1911            1912            1913            1914            1915            1916            1917            1918            1919            1920
             1921            1922            1923            1924            1925            1926            1927            1928            1929            1930
             1931            1932            1933            1934            1935            1936            1937            1938            1939            1940
             1941            1942            1943            1944            1945            1946            1947            1948            1949            1950
             1951            1952            1953            1954            1955            1956            1957            1958            1959            1960
             1961            1962            1963            1964            1965            1966            1967            1968            1969            1970
             1971            1972            1973            1974            1975            1976            1977            1978            1979            1980
             1981            1982            1983            1984            1985            1986            1987            1988            1989            1990
             1991            1992            1993            1994            1995            1996            1997            1998            1999            2000
             2001            2002            2003            2004            2005            2006            2007            2008            2009            2010
             2011            2012            2013            2014            2015            2016            2017            2018            2019            2020
             2021            2022            2023            2024            2025            2026            2027            2028            2029            2030
             2031            2032            2033            2034            2035            2036            2037            2038            2039            2040
             2041            2042            2043            2044            2045            2046            2047            2048            2049            2050
             2051            2052            2053            2054            2055            2056            2057            2058            2059            2060
             2061            2062            2063            2064            2065            2066            2067            2068            2069            2070
             2071            2072            2073            2074            2075            2076            2077            2078            2079            2080
             2081            2082            2083            2084            2085            2086            2087            2088            2089            2090
             2091            2092            2093            2094            2095            2096            2097            2098            2099            2100
             2101            2102            2103            2104            2105            2106            2107            2108            2109            2110
             2111            2112            2113            2114            2115            2116            2117            2118            2119            2120
             2121            2122            2123            2124            2125            2126            2127            2128            2129            2130
             2131            2132            2133            2134            2135            2136            2137            2138            2139            2140
             2141            2142            2143            2144            2145            2146            2147            2148            2149            2150
             2151            2152            2153            2154            2155            2156            2157            2158            2159            2160
             2161            2162            2163            2164            2165            2166            2167            2168            2169            2170
             2171            2172            2173            2174            2175            2176            2177            2178            2179            2180
             2181            2182            2183            2184            2185            2186            2187            2188            2189            2190
             2191            2192            2193            2194            2195            2196            2197            2198            2199            2200
             2201            2202            2203            2204            2205            2206            2207            2208            2209            2210
             2211            2212            2213            2214            2215            2216            2217            2218            2219            2220
             2221            2222            2223            2224            2225            2226            2227            2228            2229            2230
             2231            2232            2233            2234            2235            2236            2237            2238            2239            2240
             2241            2242            2243            2244            2245            2246            2247            2248            2249            2250
             2251            2252            2253            2254            2255            2256            2257            2258            2259            2260
             2261            2262            2263            2264            2265            2266            2267            2268            2269            2270
             2271            2272            2273            2274            2275            2276            2277            2278            2279            2280
             2281            2282            2283            2284            2285            2286            2287            2288            2289            2290
             2291            2292            2293            2294            2295            2296            2297            2298            2299            2300
             2301            2302            2303            2304            2305            2306            2307            2308            2309            2310
             2311            2312            2313            2314            2315            2316            2317            2318            2319            2320
             2321            2322            2323            2324            2325            2326            2327            2328            2329            2330
             2331            2332            2333            2334            2335            2336            2337            2338            2339            2340
             2341            2342            2343            2344            2345            2346            2347            2348            2349            2350
             2351            2352            2353            2354            2355            2356            2357            2358            2359            2360
             2361            2362            2363            2364            2365            2366            2367            2368            2369            2370
             2371            2372            2373            2374            2375            2376            2377            2378            2379            2380
             2381            2382            2383            2384            2385            2386            2387            2388            2389            2390
             2391            2392            2393            2394            2395            2396            2397            2398            2399            2400
             2401            2402            2403            2404            2405            2406            2407            2408            2409            2410
             2411            2412            2413            2414            2415            2416            2417            2418            2419            2420
             2421            2422            2423            2424            2425            2426            2427            2428            2429            2430
             2431            2432            2433            2434            2435            2436            2437            2438            2439            2440
             2441            2442            2443            2444            2445            2446            2447            2448            2449            2450
             2451            2452            2453            2454            2455            2456            2457            2458            2459            2460
             2461            2462            2463            2464            2465            2466            2467            2468            2469            2470
             2471            2472            2473            2474            2475            2476            2477            2478            2479            2480
             2481            2482            2483            2484            2485            2486            2487            2488            2489            2490
             2491            2492            2493            2494            2495            2496            2497            2498            2499            2500
             2501            2502            2503            2504            2505            2506            2507            2508            2509            2510
             2511            2512            2513            2514            2515            2516            2517            2518            2519            2520
             2521            2522            2523            2524            2525            2526            2527            2528            2529            2530
             2531            2532            2533            2534            2535            2536            2537            2538            2539            2540
             2541            2542            2543            2544            2545            2546            2547            2548            2549            2550
             2551            2552            2553            2554            2555            2556            2557            2558            2559            2560
             2561            2562            2563            2564            2565            2566            2567            2568            2569            2570
             2571            2572            2573            2574            2575            2576            2577            2578            2579            2580
             2581            2582            2583            2584            2585            2586            2587            2588            2589            2590
             2591            2592            2593            2594            2595            2596            2597            2598            2599            2600
             2601            2602            2603            2604            2605            2606            2607            2608            2609            2610
             2611            2612            2613            2614            2615            2616            2617            2618            2619            2620
             2621            2622            2623            2624            2625            2626            2627            2628            2629            2630
             2631            2632            2633            2634            2635            2636            2637            2638            2639            2640
             2641            2642            2643            2644            2645            2646            2647            2648            2649            2650
             2651            2652            2653            2654            2655            2656            2657            2658            2659            2660
             2661            2662            2663            2664            2665            2666            2667            2668            2669            2670
             2671            2672            2673            2674            2675            2676            2677            2678            2679            2680
             2681            2682            2683            2684            2685            2686            2687            2688            2689            2690
             2691            2692            2693            2694            2695            2696            2697            2698            2699            2700
             2701            2702            2703            2704            2705            2706            2707            2708            2709            2710
             2711            2712            2713            2714            2715            2716            2717            2718            2719            2720
             2721            2722            2723            2724            2725            2726            2727            2728            2729            2730
             2731            2732            2733            2734            2735            2736            2737            2738            2739            2740
             2741            2742            2743            2744            2745            2746            2747            2748            2749            2750
             2751            2752            2753            2754            2755            2756            2757            2758            2759            2760
             2761            2762            2763            2764            2765            2766            2767            2768            2769            2770
             2771            2772            2773            2774            2775            2776            2777            2778            2779            2780
             2781            2782            2783            2784            2785            2786            2787            2788            2789            2790
             2791            2792            2793            2794            2795            2796            2797            2798            2799            2800
             2801            2802            2803            2804            2805            2806            2807            2808            2809            2810
             2811            2812            2813            2814            2815            2816            2817            2818            2819            2820
             2821            2822            2823            2824            2825            2826            2827            2828            2829            2830
             2831            2832            2833            2834            2835            2836            2837            2838            2839            2840
             2841            2842            2843            2844            2845            2846            2847            2848            2849            2850
             2851            2852            2853            2854            2855            2856            2857            2858            2859            2860
             2861            2862            2863            2864            2865            2866            2867            2868            2869            2870
             2871            2872            2873            2874            2875            2876            2877            2878            2879            2880
             2881            2882            2883            2884            2885            2886            2887            2888            2889            2890
             2891            2892            2893            2894            2895            2896            2897            2898            2899            2900
             2901            2902            2903            2904            2905            2906            2907            2908            2909            2910
             2911            2912            2913            2914            2915            2916            2917            2918            2919            2920
             2921            2922            2923            2924            2925            2926            2927            2928            2929            2930
             2931            2932            2933            2934            2935            2936            2937            2938            2939            2940
             2941            2942            2943            2944            2945            2946            2947            2948            2949            2950
             2951            2952            2953            2954            2955            2956            2957            2958            2959            2960
             2961            2962            2963            2964            2965            2966            2967            2968            2969            2970
             2971            2972            2973            2974            2975            2976            2977            2978            2979            2980
             2981            2982            2983            2984            2985            2986            2987            2988            2989            2990
             2991            2992            2993            2994            2995            2996            2997            2998            2999            3000
             3001            3002            3003            3004            3005            3006            3007            3008            3009            3010
             3011            3012            3013            3014            3015            3016            3017            3018            3019            3020
             3021            3022            3023            3024            3025            3026            3027            3028            3029            3030
             3031            3032            3033            3034            3035            3036            3037            3038            3039            3040
             3041            3042            3043            3044            3045            3046            3047            3048            3049            3050
             3051            3052            3053            3054            3055            3056            3057            3058            3059            3060
             3061            3062            3063            3064            3065            3066            3067            3068            3069            3070
             3071            3072            3073            3074            3075            3076            3077            3078            3079            3080
             3081            3082            3083            3084            3085            3086            3087            3088            3089            3090
             3091            3092            3093            3094            3095            3096            3097            3098            3099            3100
             3101            3102            3103            3104            3105            3106            3107            3108            3109            3110
             3111            3112            3113            3114            3115            3116            3117            3118            3119            3120
             3121            3122            3123            3124            3125            3126            3127            3128            3129            3130
             3131            3132            3133            3134            3135            3136            3137            3138            3139            3140
             3141            3142            3143            3144            3145            3146            3147            3148            3149            3150
             3151            3152            3153            3154            3155            3156            3157            3158            3159            3160
             3161            3162            3163            3164            3165            3166            3167            3168            3169            3170
             3171            3172            3173            3174            3175            3176            3177            3178            3179            3180
             3181            3182            3183            3184            3185            3186            3187            3188            3189            3190
             3191            3192            3193            3194            3195            3196            3197            3198            3199            3200
             3201            3202            3203            3204            3205            3206            3207            3208            3209            3210
             3211            3212            3213            3214            3215            3216            3217            3218            3219            3220
             3221            3222            3223            3224            3225            3226            3227            3228            3229            3230
             3231            3232            3233            3234            3235            3236            3237            3238            3239            3240
             3241            3242            3243            3244            3245            3246            3247            3248            3249            3250
             3251            3252            3253            3254            3255            3256            3257            3258            3259            3260
             3261            3262            3263            3264            3265            3266            3267            3268            3269            3270
             3271            3272            3273            3274            3275            3276            3277            3278            3279            3280
             3281            3282            3283            3284            3285            3286            3287            3288            3289            3290
             3291            3292            3293            3294            3295            3296            3297            3298            3299            3300
             3301            3302            3303            3304            3305            3306            3307            3308            3309            3310
             3311            3312            3313            3314            3315            3316            3317            3318            3319            3320
             3321            3322            3323            3324            3325            3326            3327            3328            3329            3330
             3331            3332            3333            3334            3335            3336            3337            3338            3339            3340
             3341            3342            3343            3344            3345            3346            3347            3348            3349            3350
             3351            3352            3353            3354            3355            3356            3357            3358            3359            3360
             3361            3362            3363            3364            3365            3366            3367            3368            3369            3370
             3371            3372            3373            3374            3375            3376            3377            3378            3379            3380
             3381            3382            3383            3384            3385            3386            3387            3388            3389            3390
             3391            3392            3393            3394            3395            3396            3397            3398            3399            3400
             3401            3402            3403            3404            3405            3406            3407            3408            3409            3410
             3411            3412            3413            3414            3415            3416            3417            3418            3419            3420
             3421            3422            3423            3424            3425            3426            3427            3428            3429            3430
             3431            3432            3433            3434            3435            3436            3437            3438            3439            3440
             3441            3442            3443            3444            3445            3446            3447            3448            3449            3450
             3451            3452            3453            3454            3455            3456            3457            3458            3459            3460
             3461            3462            3463            3464            3465            3466            3467            3468            3469            3470
             3471            3472            3473            3474            3475            3476            3477            3478            3479            3480
             3481            3482            3483            3484            3485            3486            3487            3488            3489            3490
             3491            3492            3493            3494            3495            3496            3497            3498            3499            3500
             3501            3502            3503            3504            3505            3506            3507            3508            3509            3510
             3511            3512            3513            3514            3515            3516            3517            3518            3519            3520
             3521            3522            3523            3524            3525            3526            3527            3528            3529            3530
             3531            3532            3533            3534            3535            3536            3537            3538            3539            3540
             3541            3542            3543            3544            3545            3546            3547            3548            3549            3550
             3551            3552            3553            3554            3555            3556            3557            3558            3559            3560
             3561            3562            3563            3564            3565            3566            3567            3568            3569            3570
             3571            3572            3573            3574            3575            3576            3577            3578            3579            3580
             3581            3582            3583            3584            3585            3586            3587            3588            3589            3590
             3591            3592            3593            3594            3595            3596            3597            3598            3599            3600
             3601            3602            3603            3604            3605            3606            3607            3608            3609            3610
             3611            3612            3613            3614            3615            3616            3617            3618            3619            3620
             3621            3622            3623            3624            3625            3626            3627            3628            3629            3630
             3631            3632            3633            3634            3635            3636            3637            3638            3639            3640
             3641            3642            3643            3644            3645            3646            3647            3648            3649            3650
             3651            3652            3653            3654            3655            3656            3657            3658            3659            3660
             3661            3662            3663            3664            3665            3666            3667            3668            3669            3670
             3671            3672            3673            3674            3675            3676            3677            3678            3679            3680
             3681            3682            3683            3684            3685            3686            3687            3688            3689            3690
             3691            3692            3693            3694            3695            3696            3697            3698            3699            3700
             3701            3702            3703            3704            3705            3706            3707            3708            3709            3710
             3711            3712            3713            3714            3715            3716            3717            3718            3719            3720
             3721            3722            3723            3724            3725            3726            3727            3728            3729            3730
             3731            3732            3733            3734            3735            3736            3737            3738            3739            3740
             3741            3742            3743            3744            3745            3746            3747            3748            3749            3750
             3751            3752            3753            3754            3755            3756            3757            3758            3759            3760
             3761            3762            3763            3764            3765            3766            3767            3768            3769            3770
             3771            3772            3773            3774            3775            3776            3777            3778            3779            3780
             3781            3782            3783
 ................................................................................................................................................................
   1      133.680         133.679         133.678         133.677         133.680         133.683         133.680         133.683         133.690         133.709    
          133.737         133.772         133.815         133.863         133.915         133.971         134.029         134.087         134.145         134.202    
          134.253         134.296         134.324         133.677         133.678         133.678         133.677         133.677         133.679         133.682    
          133.679         133.682         133.687         133.692         133.686         133.692         133.706         133.733         133.767         133.809    
          133.857         133.909         133.965         134.023         134.082         134.142         134.199         134.253         134.302         134.343    
          134.378         133.673         133.675         133.676         133.677         133.677         133.678         133.681         133.687         133.692    
          133.687         133.692         133.701         133.709         133.700         133.708         133.723         133.735         133.721         133.734    
          133.760         133.800         133.848         133.900         133.956         134.015         134.075         134.136         134.196         134.254    
          134.308         134.358         134.403         134.443         133.668         133.671         133.673         133.676         133.677         133.678    
          133.680         133.683         133.691         133.704         133.720         133.733         133.720         133.731         133.749         133.763    
          133.746         133.762         133.792         133.838         133.889         133.946         134.006         134.067         134.129         134.191    
          134.252         134.312         134.369         134.423         134.473         134.519         133.663         133.666         133.670         133.673    
          133.676         133.678         133.681         133.684         133.688         133.696         133.708         133.726         133.746         133.761    
          133.747         133.760         133.780         133.796         133.778         133.796         133.830         133.880         133.937         133.997    
          134.058         134.121         134.185         134.250         134.314         134.377         134.439         134.499         134.556         134.609    
          133.657         133.661         133.665         133.669         133.674         133.678         133.682         133.686         133.690         133.696    
          133.703         133.715         133.732         133.756         133.779         133.797         133.781         133.797         133.818         133.837    
          133.818         133.839         133.875         133.931         133.990         134.051         134.114         134.179         134.246         134.314    
          134.383         134.452         134.520         134.588         134.654         134.717         133.651         133.655         133.659         133.665    
          133.670         133.676         133.681         133.687         133.692         133.698         133.705         133.714         133.726         133.742    
          133.764         133.794         133.821         133.841         133.825         133.843         133.866         133.887         133.867         133.890    
          133.929         133.986         134.046         134.108         134.173         134.241         134.312         134.385         134.460         134.537    
          134.615         134.694         134.773         134.850         133.644         133.648         133.653         133.659         133.665         133.672    
          133.679         133.686         133.693         133.700         133.708         133.717         133.727         133.740         133.757         133.778    
          133.806         133.842         133.872         133.895         133.878         133.898         133.921         133.943         133.924         133.948    
          133.987         134.043         134.103         134.166         134.235         134.308         134.385         134.465         134.550         134.637    
          134.728         134.823         134.921         135.021         133.639         133.642         133.647         133.652         133.654         133.651    
          133.654         133.659         133.667         133.675         133.683         133.691         133.700         133.709         133.719         133.730    
          133.742         133.757         133.774         133.796         133.824         133.857         133.898         133.930         133.953         133.936    
          133.957         133.980         134.002         133.984         134.005         134.032         134.055         134.034         134.056         134.087    
          134.113         134.086         134.114         134.161         134.228         134.301         134.381         134.467         134.557         134.653    
          134.754         134.862         134.980         135.112         135.284         135.432         135.564         135.688         135.806         135.920    
          136.030         136.137         136.242         136.346         136.449         136.551         136.653         136.756         136.861         136.968    
          137.077         137.190         137.307         137.427         137.549         137.673         137.798         137.923         138.050         138.180    
          138.313         138.451         138.595         138.744         138.900         139.060         139.221         139.379         139.527         139.636    
          133.639         133.642         133.646         133.648         133.646         133.648         133.651         133.652         133.651         133.652    
          133.655         133.652         133.655         133.661         133.669         133.678         133.688         133.698         133.709         133.720    
          133.731         133.744         133.758         133.775         133.794         133.816         133.843         133.876         133.913         133.955    
          134.000         134.049         134.088         134.115         134.091         134.115         134.147         134.172         134.146         134.171    
          134.208         134.238         134.205         134.238         134.294         134.376         134.464         134.559         134.660         134.769    
          134.886         135.014         135.148         135.292         135.431         135.560         135.682         135.799         135.912         136.022    
          136.129         136.234         136.337         136.440         136.543         136.646         136.749         136.854         136.962         137.072    
          137.186         137.304         137.426         137.550         137.675         137.801         137.927         138.054         138.184         138.318    
          138.458         138.603         138.755         138.913         139.074         139.241         139.409         139.579         139.740         139.898    
          133.639         133.642         133.647         133.654         133.663         133.672         133.683         133.694         133.706         133.718    
          133.731         133.745         133.759         133.775         133.793         133.814         133.837         133.864         133.895         133.930    
          133.969         134.011         134.057         134.106         134.160         134.205         134.238         134.206         134.238         134.290    
          134.370         134.459         134.556         134.660         134.774         134.896         135.027         135.161         135.294         135.426    
          135.551         135.671         135.786         135.898         136.006         136.113         136.218         136.321         136.425         136.528    
          136.632         136.736         136.843         136.952         137.064         137.180         137.301         137.425         137.551         137.678    
          137.805         137.932         138.060         138.191         138.327         138.468         138.615         138.771         138.931         139.097    
          139.270         139.449         139.638         139.824         140.003         140.165         133.640         133.643         133.648         133.656    
          133.666         133.676         133.688         133.700         133.714         133.728         133.743         133.758         133.775         133.792    
          133.812         133.834         133.858         133.885         133.915         133.949         133.985         134.025         134.068         134.114    
          134.166         134.208         134.239         134.212         134.239         134.275         134.304         134.273         134.307         134.365    
          134.452         134.548         134.654         134.769         134.893         135.027         135.159         135.287         135.415         135.537    
          135.654         135.768         135.878         135.985         136.091         136.196         136.300         136.404         136.509         136.614    
          136.720         136.828         136.940         137.054         137.172         137.297         137.424         137.552         137.681         137.810    
          137.938         138.068         138.200         138.337         138.481         138.630         138.788         138.952         139.124         139.302    
          139.489         139.689         139.887         140.079         140.257         140.409         133.641         133.644         133.650         133.659    
          133.669         133.681         133.694         133.708         133.722         133.738         133.755         133.772         133.790         133.810    
          133.830         133.853         133.878         133.905         133.935         133.968         134.003         134.041         134.082         134.126    
          134.175         134.230         134.276         134.309         134.280         134.308         134.347         134.380         134.346         134.382    
          134.444         134.538         134.642         134.757         134.881         135.015         135.147         135.273         135.399         135.519    
          135.634         135.746         135.854         135.961         136.066         136.171         136.276         136.381         136.487         136.594    
          136.702         136.813         136.926         137.043         137.164         137.292         137.423         137.553         137.684         137.815    
          137.945         138.077         138.210         138.347         138.492         138.645         138.805         138.973         139.150         139.332    
          139.524         139.728         139.932         140.129         140.315         140.481         140.614         133.643         133.646         133.653    
          133.662         133.673         133.686         133.700         133.715         133.731         133.749         133.767         133.786         133.806    
          133.826         133.849         133.872         133.898         133.926         133.956         133.988         134.022         134.059         134.099    
          134.141         134.188         134.240         134.299         134.348         134.383         134.352         134.382         134.424         134.459    
          134.422         134.460         134.527         134.628         134.740         134.863         134.998         135.130         135.255         135.379    
          135.498         135.611         135.721         135.827         135.934         136.039         136.144         136.250         136.357         136.464    
          136.573         136.683         136.797         136.913         137.033         137.158         137.288         137.422         137.555         137.687    
          137.820         137.952         138.085         138.219         138.357         138.503         138.659         138.822         138.992         139.172    
          139.359         139.554         139.759         139.961         140.158         140.346         140.519         140.665         140.776         133.645    
          133.649         133.656         133.665         133.677         133.691         133.707         133.723         133.741         133.759         133.779    
          133.800         133.821         133.843         133.866         133.891         133.917         133.945         133.975         134.008         134.042    
          134.078         134.117         134.159         134.203         134.253         134.309         134.371         134.423         134.460         134.426    
          134.458         134.504         134.541         134.500         134.542         134.614         134.722         134.843         134.976         135.108    
          135.233         135.356         135.473         135.585         135.693         135.799         135.905         136.010         136.116         136.223    
          136.331         136.441         136.552         136.666         136.783         136.902         137.025         137.153         137.286         137.422    
          137.557         137.691         137.825         137.959         138.094         138.230         138.368         138.514         138.670         138.836    
          139.009         139.191         139.384         139.582         139.783         139.980         140.170         140.356         140.532         140.683    
          140.802         140.874         133.648         133.652         133.659         133.670         133.682         133.697         133.714         133.731    
          133.750         133.770         133.791         133.813         133.835         133.859         133.883         133.908         133.935         133.964    
          133.995         134.027         134.062         134.098         134.137         134.178         134.222         134.269         134.322         134.380    
          134.445         134.501         134.541         134.504         134.538         134.587         134.627         134.583         134.628         134.706    
          134.824         134.955         135.086         135.210         135.331         135.447         135.558         135.665         135.770         135.875    
          135.981         136.088         136.196         136.306         136.418         136.532         136.649         136.770         136.894         137.020    
          137.150         137.286         137.423         137.560         137.696         137.831         137.966         138.103         138.240         138.380    
          138.527         138.683         138.847         139.023         139.210         139.407         139.605         139.800         139.989         140.172    
          140.353         140.526         140.648         140.705         140.636         140.702         140.796         140.862         133.651         133.656    
          133.663         133.674         133.688         133.703         133.721         133.740         133.760         133.781         133.803         133.826    
          133.849         133.874         133.899         133.925         133.953         133.983         134.014         134.047         134.082         134.119    
          134.158         134.199         134.242         134.289         134.339         134.394         134.455         134.525         134.584         134.628    
          134.586         134.619         134.636         134.619         134.636         134.678         134.721         134.673         134.723         134.810    
          134.913         134.968         134.903         134.966         135.065         135.189         135.308         135.421         135.530         135.636    
          135.740         135.845         135.952         136.059         136.169         136.281         136.396         136.514         136.635         136.760    
          136.888         137.018         137.151         137.287         137.425         137.563         137.701         137.838         137.975         138.112    
          138.251         138.393         138.541         138.697         138.862         139.036         139.228         139.429         139.623         139.810    
          139.991         140.167         140.342         140.479         140.545         140.469         140.533         140.610         140.639         140.606    
          140.635         140.688         140.614         140.673         140.770         140.835         133.655         133.660         133.668         133.679    
          133.694         133.710         133.728         133.748         133.769         133.791         133.815         133.839         133.863         133.888    
          133.914         133.941         133.970         134.000         134.033         134.067         134.103         134.141         134.180         134.222    
          134.265         134.311         134.361         134.414         134.472         134.538         134.591         134.629         134.598         134.632    
          134.674         134.723         134.677         134.725         134.803         134.897         134.948         134.974         134.946         134.972    
          134.891         134.953         135.025         135.078         135.015         135.076         135.170         135.285         135.394         135.501    
          135.607         135.711         135.817         135.923         136.031         136.143         136.258         136.376         136.498         136.624    
          136.752         136.885         137.020         137.155         137.292         137.430         137.568         137.707         137.846         137.984    
          138.123         138.264         138.407         138.556         138.713         138.879         139.056         139.250         139.449         139.637    
          139.815         139.986         140.154         140.321         140.480         140.622         140.735         140.799         133.659         133.664    
          133.673         133.685         133.700         133.717         133.736         133.756         133.778         133.801         133.826         133.850    
          133.876         133.902         133.929         133.956         133.986         134.018         134.051         134.087         134.124         134.163    
          134.203         134.245         134.290         134.336         134.386         134.439         134.496         134.558         134.628         134.685    
          134.729         134.692         134.735         134.805         134.889         134.936         134.961         134.933         134.961         134.887    
          134.931         134.959         134.932         134.956         135.008         135.071         135.002         135.063         135.134         135.181    
          135.123         135.178         135.263         135.369         135.475         135.579         135.683         135.788         135.895         136.005    
          136.118         136.236         136.358         136.484         136.614         136.748         136.885         137.024         137.162         137.300    
          137.437         137.576         137.715         137.855         137.995         138.137         138.279         138.424         138.577         138.696    
          138.763         138.701         138.779         138.901         139.081         139.273         139.423         139.505         139.426         139.496    
          139.532         139.499         139.536         139.605         139.681         139.604         139.688         139.814         139.978         140.140    
          140.298         140.450         140.588         140.697         140.759         133.663         133.669         133.678         133.691         133.706    
          133.724         133.743         133.764         133.787         133.811         133.836         133.861         133.888         133.915         133.934    
          133.945         133.938         133.951         133.971         134.002         134.035         134.070         134.106         134.145         134.184    
          134.226         134.270         134.315         134.363         134.414         134.468         134.525         134.586         134.653         134.704    
          134.744         134.716         134.750         134.791         134.832         134.795         134.841         134.887         134.943         134.893    
          134.938         134.988         135.011         134.987         135.010         135.057         134.995         135.051         135.105         135.127    
          135.102         135.124         135.170         135.107         135.162         135.227         135.270         135.216         135.265         135.347    
          135.450         135.553         135.656         135.760         135.868         135.979         136.095         136.216         136.342         136.473    
          136.608         136.747         136.888         137.031         137.173         137.280         137.337         137.280         137.346         137.447    
          137.586         137.726         137.867         138.009         138.152         138.297         138.446         138.602         138.717         138.776    
          138.808         138.781         138.813         138.734         138.803         138.882         138.954         138.896         138.964         139.104    
          139.295         139.433         139.523         139.438         139.526         139.590         139.623         139.592         139.624         139.689    
          139.610         139.691         139.812         139.969         140.123         140.275         140.422         140.556         140.662         140.723    
          133.666         133.674         133.685         133.698         133.714         133.731         133.751         133.772         133.795         133.820    
          133.845         133.872         133.899         133.919         133.930         133.923         133.935         133.940         133.946         133.943    
          133.948         133.958         133.951         133.963         133.984         134.017         134.052         134.088         134.126         134.165    
          134.207         134.250         134.295         134.342         134.392         134.444         134.498         134.555         134.615         134.680    
          134.749         134.804         134.847         134.812         134.853         134.919         134.994         135.037         135.058         135.035    
          135.057         134.993         135.043         135.100         135.155         135.094         135.148         135.199         135.218         135.196    
          135.215         135.254         135.202         135.245         135.327         135.429         135.530         135.631         135.734         135.842    
          135.955         136.075         136.199         136.329         136.465         136.606         136.749         136.895         137.043         137.155    
          137.213         137.161         137.219         137.270         137.299         137.274         137.302         137.355         137.299         137.361    
          137.430         137.488         137.419         137.446         137.422         137.449         137.498         137.599         137.739         137.881    
          138.025         138.170         138.318         138.472         138.630         138.789         138.951         139.083         139.165         139.086    
          139.156         139.193         139.161         139.197         139.268         139.350         139.270         139.363         139.446         139.513    
          139.547         139.515         139.549         139.453         139.537         139.613         139.691         139.623         139.689         139.810    
          139.959         140.108         140.256         140.399         140.529         140.632         140.691         133.681         133.693         133.706    
          133.722         133.740         133.759         133.781         133.804         133.828         133.854         133.881         133.909         133.938    
          133.967         133.999         134.032         134.068         134.106         134.145         134.186         134.229         134.274         134.321    
          134.369         134.420         134.474         134.529         134.586         134.645         134.707         134.773         134.822         134.861    
          134.829         134.867         134.926         134.994         135.031         135.050         135.029         135.048         134.996         135.035    
          135.088         135.139         135.085         135.135         135.212         135.311         135.410         135.510         135.611         135.713    
          135.820         135.935         136.058         136.186         136.320         136.461         136.607         136.756         136.905         137.055    
          137.201         137.344         137.445         137.510         137.458         137.514         137.617         137.756         137.898         138.042    
          138.189         138.340         138.497         138.618         138.686         138.624         138.681         138.712         138.686         138.716    
          138.771         138.841         138.776         138.853         138.929         139.000         138.933         139.011         139.069         139.110    
          139.069         139.115         139.184         139.074         139.121         139.077         139.123         139.170         139.209         139.170    
          139.214         139.277         139.371         139.261         139.301         139.262         139.307         139.377         139.460         139.542    
          139.466         139.546         139.664         139.782         139.845         139.781         139.836         139.864         139.837         139.865    
          139.924         139.983         139.925         139.982         140.097         140.243         140.384         140.510         140.609         140.667    
          133.702         133.716         133.731         133.748         133.768         133.789         133.812         133.836         133.863         133.890    
          133.919         133.949         133.980         134.013         134.048         134.085         134.124         134.165         134.208         134.252    
          134.298         134.346         134.396         134.448         134.502         134.558         134.615         134.673         134.734         134.778    
          134.804         134.786         134.816         134.839         134.875         134.849         134.883         134.935         135.017         135.085    
          135.132         135.088         135.129         135.183         135.224         135.169         135.188         135.168         135.187         135.225    
          135.299         135.397         135.498         135.598         135.699         135.807         135.900         135.952         135.892         135.951    
          136.022         136.079         136.015         136.080         136.152         136.208         136.147         136.212         136.317         136.463    
          136.614         136.766         136.920         137.073         137.222         137.364         137.502         137.639         137.775         137.915    
          138.060         138.209         138.361         138.517         138.632         138.709         138.640         138.699         138.731         138.702    
          138.733         138.785         138.860         138.795         138.862         138.939         139.019         138.945         139.007         139.040    
          139.007         139.044         139.081         139.126         139.087         139.126         139.173         139.217         139.178         139.217    
          139.110         139.203         139.264         139.312         139.267         139.315         139.386         139.272         139.319         139.277    
          139.320         139.371         139.410         139.373         139.413         139.455         139.487         139.459         139.490         139.551    
          139.482         139.552         139.673         139.784         139.852         139.792         139.851         139.959         140.101         140.243    
          140.378         140.500         140.597         140.653         133.727         133.741         133.758         133.777         133.798         133.820    
          133.845         133.872         133.900         133.929         133.960         133.992         134.027         134.063         134.101         134.142    
          134.185         134.229         134.275         134.322         134.372         134.423         134.475         134.530         134.585         134.642    
          134.700         134.759         134.799         134.828         134.811         134.838         134.860         134.893         134.873         134.901    
          134.930         134.960         134.937         134.970         135.025         135.111         135.179         135.227         135.182         135.231    
          135.299         135.395         135.496         135.575         135.617         135.574         135.622         135.697         135.781         135.827    
          135.780         135.833         135.889         135.950         135.892         135.953         136.014         136.081         136.017         136.084    
          136.135         136.161         136.136         136.162         136.215         136.152         136.220         136.324         136.474         136.627    
          136.783         136.940         137.096         137.211         137.270         137.220         137.281         137.349         137.409         137.339    
          137.367         137.343         137.371         137.422         137.522         137.659         137.795         137.934         138.081         138.231    
          138.381         138.534         138.646         138.721         138.652         138.727         138.838         138.953         139.011         139.048    
          139.016         139.048         138.958         139.038         139.116         139.208         139.124         139.195         139.231         139.197    
          139.233         139.302         139.399         139.306         139.404         139.530         139.687         139.833         139.974         140.114    
          140.252         140.385         140.504         140.598         140.653         133.753         133.769         133.787         133.807         133.830    
          133.854         133.881         133.909         133.939         133.971         134.005         134.040         134.078         134.118         134.160    
          134.204         134.250         134.297         134.346         134.396         134.448         134.502         134.556         134.612         134.668    
          134.725         134.783         134.842         134.905         134.949         134.982         134.961         134.992         135.023         135.056    
          135.034         135.068         135.104         135.141         135.115         135.153         135.191         135.239         135.204         135.246    
          135.290         135.328         135.299         135.338         135.383         135.426         135.394         135.437         135.484         135.526    
          135.496         135.538         135.581         135.619         135.640         135.622         135.643         135.595         135.639         135.685    
          135.728         135.696         135.740         135.785         135.840         135.800         135.848         135.899         135.960         135.911    
          135.973         136.024         136.091         136.037         136.103         136.160         136.231         136.171         136.242         136.343    
          136.492         136.648         136.806         136.964         137.118         137.266         137.368         137.436         137.378         137.446    
          137.543         137.679         137.815         137.956         138.103         138.255         138.407         138.557         138.664         138.738    
          138.674         138.731         138.761         138.735         138.765         138.818         138.880         138.826         138.889         138.963    
          139.045         138.973         139.036         139.069         139.040         139.073         139.132         139.220         139.144         139.223    
          139.315         139.390         139.428         139.391         139.430         139.326         139.410         139.504         139.573         139.510    
          139.580         139.703         139.853         139.996         140.137         140.272         140.403         140.519         140.610         140.664    
          133.782         133.799         133.818         133.841         133.865         133.891         133.920         133.950         133.982         134.017    
          134.054         134.093         134.134         134.178         134.224         134.271         134.320         134.369         134.420         134.473    
          134.527         134.582         134.638         134.694         134.751         134.808         134.868         134.930         134.997         135.072    
          135.155         135.244         135.339         135.439         135.540         135.641         135.741         135.850         135.932         135.990    
          135.954         136.007         136.054         136.118         136.078         136.135         136.188         136.260         136.207         136.278    
          136.336         136.397         136.349         136.416         136.520         136.677         136.835         136.992         137.147         137.258    
          137.318         137.268         137.319         137.348         137.326         137.355         137.391         137.458         137.408         137.465    
          137.565         137.700         137.837         137.980         138.130         138.285         138.436         138.584         138.688         138.757    
          138.703         138.763         138.874         138.984         139.064         138.999         139.069         139.198         139.378         139.557    
          139.726         139.879         140.024         140.166         140.300         140.428         140.541         140.629         140.683         133.813    
          133.832         133.853         133.877         133.902         133.931         133.961         133.994         134.030         134.068         134.108    
          134.151         134.196         134.243         134.292         134.342         134.393         134.445         134.498         134.553         134.609    
          134.664         134.721         134.777         134.835         134.896         134.960         135.029         135.106         135.190         135.283    
          135.380         135.481         135.585         135.655         135.695         135.670         135.717         135.784         135.896         136.017    
          136.144         136.234         136.302         136.257         136.328         136.371         136.440         136.399         136.456         136.561    
          136.715         136.872         137.027         137.180         137.284         137.351         137.302         137.360         137.459         137.592    
          137.724         137.862         138.007         138.160         138.317         138.469         138.616         138.759         138.905         139.059    
          139.225         139.399         139.578         139.748         139.906         140.056         140.198         140.333         140.459         140.571    
          140.659         140.712         133.847         133.867         133.890         133.915         133.943         133.974         134.007         134.043    
          134.082         134.123         134.167         134.214         134.263         134.313         134.364         134.417         134.470         134.524    
          134.580         134.636         134.693         134.749         134.806         134.865         134.927         134.994         135.066         135.145    
          135.233         135.328         135.429         135.532         135.604         135.643         135.625         135.667         135.679         135.699    
          135.690         135.710         135.744         135.722         135.765         135.837         135.955         136.080         136.168         136.220    
          136.194         136.257         136.289         136.356         136.322         136.384         136.470         136.614         136.762         136.915    
          137.069         137.218         137.360         137.459         137.514         137.470         137.532         137.623         137.756         137.893    
          138.039         138.195         138.353         138.506         138.656         138.802         138.948         139.098         139.257         139.429    
          139.606         139.775         139.935         140.088         140.232         140.369         140.496         140.609         140.699         140.751    
          133.884         133.906         133.930         133.957         133.988         134.021         134.057         134.097         134.140         134.184    
          134.233         134.283         134.335         134.388         134.442         134.497         134.553         134.609         134.666         134.723    
          134.780         134.838         134.898         134.963         135.033         135.108         135.189         135.280         135.379         135.481    
          135.585         135.689         135.793         135.904         136.026         136.154         136.235         136.296         136.269         136.334    
          136.359         136.422         136.395         136.454         136.536         136.673         136.815         136.964         137.114         137.264    
          137.367         137.421         137.386         137.443         137.472         137.498         137.481         137.507         137.553         137.515    
          137.569         137.664         137.797         137.934         138.079         138.236         138.395         138.551         138.704         138.851    
          138.997         139.144         139.299         139.466         139.638         139.807         139.967         140.121         140.269         140.409    
          140.538         140.654         140.744         140.796         133.924         133.947         133.974         134.004         134.037         134.073    
          134.114         134.144         134.162         134.152         134.170         134.187         134.208         134.188         134.198         134.192    
          134.201         134.218         134.251         134.304         134.358         134.413         134.469         134.525         134.583         134.640    
          134.698         134.756         134.815         134.875         134.937         135.004         135.077         135.155         135.241         135.335    
          135.437         135.544         135.654         135.760         135.867         135.980         136.108         136.237         136.316         136.375    
          136.354         136.394         136.418         136.410         136.434         136.435         136.496         136.472         136.530         136.606    
          136.735         136.872         137.016         137.163         137.310         137.450         137.583         137.717         137.851         137.989    
          138.136         138.288         138.442         138.601         138.755         138.903         139.050         139.196         139.348         139.509    
          139.675         139.842         140.002         140.158         140.309         140.451         140.584         140.701         140.793         140.845    
          133.967         133.993         134.022         134.054         134.091         134.131         134.174         134.205         134.229         134.215    
          134.236         134.272         134.326         134.382         134.439         134.497         134.556         134.615         134.675         134.734    
          134.794         134.854         134.916         134.981         135.051         135.129         135.213         135.303         135.402         135.511    
          135.627         135.740         135.846         135.948         136.019         136.072         136.060         136.122         136.150         136.207    
          136.172         136.196         136.190         136.215         136.252         136.329         136.402         136.456         136.445         136.496    
          136.515         136.575         136.556         136.610         136.680         136.800         136.931         137.072         137.216         137.363    
          137.506         137.643         137.779         137.915         138.057         138.203         138.346         138.495         138.652         138.805    
          138.954         139.103         139.251         139.401         139.559         139.720         139.882         140.042         140.198         140.349    
          140.495         140.630         140.751         140.845         140.897         134.015         134.043         134.075         134.110         134.150    
          134.195         134.242         134.295         134.350         134.407         134.467         134.528         134.589         134.650         134.712    
          134.774         134.835         134.898         134.963         135.033         135.109         135.193         135.284         135.381         135.486    
          135.606         135.730         135.847         135.951         136.057         136.182         136.252         136.317         136.308         136.363    
          136.432         136.541         136.603         136.656         136.641         136.696         136.715         136.762         136.751         136.783    
          136.804         136.797         136.818         136.825         136.877         136.855         136.909         136.991         137.086         137.145    
          137.105         137.173         137.270         137.421         137.569         137.665         137.724         137.692         137.765         137.804    
          137.864         137.838         137.903         137.991         138.132         138.228         138.284         138.249         138.316         138.359    
          138.419         138.364         138.390         138.374         138.400         138.447         138.550         138.661         138.725         138.680    
          138.754         138.857         139.010         139.160         139.309         139.458         139.611         139.769         139.928         140.086    
          140.241         140.392         140.539         140.678         140.801         140.897         140.949         134.067         134.098         134.133    
          134.173         134.217         134.266         134.319         134.375         134.435         134.496         134.560         134.624         134.688    
          134.753         134.817         134.882         134.949         135.019         135.096         135.179         135.270         135.369         135.475    
          135.595         135.727         135.858         135.982         136.091         136.200         136.317         136.430         136.495         136.540    
          136.544         136.592         136.639         136.691         136.739         136.732         136.762         136.781         136.779         136.798    
          136.788         136.837         136.826         136.857         136.877         136.871         136.891         136.890         136.947         136.925    
          136.982         137.013         137.067         137.042         137.104         137.115         137.143         137.129         137.157         137.206    
          137.173         137.231         137.334         137.490         137.594         137.655         137.625         137.700         137.708         137.737    
          137.725         137.755         137.806         137.776         137.851         137.880         137.926         137.955         137.943         137.972    
          137.922         137.990         138.021         138.080         138.057         138.121         138.155         138.210         138.186         138.247    
          138.278         138.344         138.311         138.376         138.411         138.483         138.444         138.515         138.614         138.715    
          138.768         138.799         138.782         138.813         138.744         138.822         138.871         138.938         138.898         138.968    
          139.067         139.216         139.322         139.386         139.342         139.420         139.471         139.535         139.502         139.566    
          139.623         139.689         139.653         139.718         139.777         139.845         139.807         139.873         139.934         140.000    
          139.960         140.026         140.088         140.154         140.113         140.178         140.241         140.308         140.260         140.335    
          140.393         140.457         140.412         140.484         140.540         140.604         140.559         140.628         140.724         140.850    
          140.947         141.000         134.125         134.160         134.199         134.243         134.291         134.345         134.402         134.463    
          134.528         134.594         134.661         134.729         134.797         134.865         134.934         135.005         135.082         135.165    
          135.257         135.357         135.468         135.590         135.725         135.867         136.005         136.132         136.239         136.344    
          136.457         136.512         136.551         136.571         136.616         136.585         136.604         136.611         136.628         136.653    
          136.667         136.699         136.739         136.782         136.820         136.819         136.859         136.862         136.908         136.898    
          136.943         136.960         136.997         137.019         137.011         137.033         136.994         137.050         137.075         137.140    
          137.113         137.166         137.261         137.413         137.570         137.671         137.745         137.706         137.785         137.820    
          137.870         137.900         137.886         137.915         137.860         137.931         137.962         138.028         138.001         138.044    
          138.068         138.058         138.084         138.093         138.136         138.162         138.149         138.175         138.104         138.130    
          138.119         138.143         138.188         138.219         138.261         138.285         138.273         138.298         138.256         138.310    
          138.344         138.390         138.417         138.405         138.432         138.358         138.386         138.374         138.402         138.448    
          138.481         138.558         138.520         138.591         138.685         138.781         138.854         138.808         138.885         138.929    
          139.002         138.965         139.029         139.083         139.145         139.114         139.177         139.229         139.291         139.262    
          139.324         139.373         139.450         139.409         139.472         139.579         139.732         139.883         140.034         140.186    
          140.288         140.359         140.314         140.380         140.435         140.508         140.463         140.529         140.583         140.654    
          140.610         140.673         140.730         140.788         140.748         140.812         140.896         140.994         141.046         134.190    
          134.228         134.271         134.319         134.373         134.431         134.494         134.560         134.629         134.700         134.772    
          134.844         134.916         134.989         135.065         135.149         135.242         135.343         135.455         135.579         135.717    
          135.866         136.013         136.149         136.270         136.377         136.487         136.594         136.685         136.765         136.802    
          136.828         136.837         136.855         136.868         136.871         136.886         136.862         136.881         136.895         136.895    
          136.909         136.899         136.930         136.932         136.976         136.966         137.009         137.027         137.086         137.059    
          137.116         137.198         137.343         137.497         137.653         137.753         137.802         137.833         137.817         137.848    
          137.789         137.858         137.898         137.968         137.938         137.997         138.016         138.040         138.029         138.052    
          138.093         138.065         138.125         138.155         138.221         138.186         138.248         138.333         138.420         138.488    
          138.452         138.523         138.559         138.631         138.594         138.666         138.707         138.766         138.742         138.800    
          138.843         138.916         138.880         138.939         139.043         139.194         139.344         139.495         139.648         139.799    
          139.946         140.094         140.242         140.387         140.533         140.678         140.773         140.837         140.795         140.852    
          140.903         140.950         140.917         140.969         141.030         141.077         134.261         134.303         134.351         134.404    
          134.462         134.526         134.595         134.666         134.741         134.817         134.893         134.969         135.047         135.132    
          135.224         135.325         135.435         135.559         135.698         135.849         136.003         136.147         136.279         136.401    
          136.513         136.620         136.712         136.791         136.826         136.850         136.862         136.877         136.889         136.893    
          136.905         136.879         136.893         136.907         136.908         136.922         136.917         136.929         136.942         136.945    
          136.957         136.936         136.952         136.963         136.967         136.979         136.972         137.003         137.001         137.044    
          137.043         137.082         137.075         137.099         137.092         137.118         137.161         137.142         137.198         137.285    
          137.434         137.585         137.731         137.879         138.019         138.101         138.139         138.162         138.151         138.175    
          138.132         138.185         138.218         138.284         138.254         138.308         138.400         138.491         138.559         138.521    
          138.592         138.629         138.699         138.664         138.722         138.821         138.966         139.115         139.269         139.423    
          139.575         139.725         139.872         140.016         140.161         140.303         140.442         140.581         140.719         140.852    
          140.936         140.987         140.950         140.995         141.035         141.063         141.045         141.073         141.086         141.096    
          134.340         134.386         134.438         134.497         134.561         134.631         134.706         134.784         134.864         134.945    
          135.027         135.113         135.204         135.304         135.414         135.536         135.673         135.821         135.974         136.127    
          136.272         136.406         136.529         136.637         136.733         136.815         136.883         136.908         136.931         136.946    
          136.972         136.957         136.982         137.001         137.024         137.013         137.047         137.056         137.086         137.129    
          137.242         137.381         137.524         137.667         137.812         137.955         138.087         138.211         138.337         138.471    
          138.560         138.627         138.589         138.656         138.748         138.900         139.052         139.203         139.357         139.511    
          139.663         139.812         139.956         140.095         140.232         140.366         140.497         140.626         140.753         140.874    
          140.983         141.070         141.120         134.426         134.476         134.535         134.600         134.671         134.749         134.831    
          134.916         135.003         135.092         135.185         135.285         135.394         135.514         135.646         135.792         135.945    
          136.103         136.257         136.400         136.530         136.646         136.748         136.838         136.912         136.974         137.028    
          137.080         137.106         137.138         137.146         137.180         137.227         137.344         137.477         137.616         137.758    
          137.895         138.032         138.159         138.283         138.412         138.500         138.555         138.529         138.599         138.628    
          138.698         138.672         138.731         138.832         138.993         139.151         139.305         139.457         139.611         139.762    
          139.908         140.045         140.178         140.306         140.430         140.548         140.664         140.776         140.883         140.982    
          141.069         141.120         134.520         134.578         134.643         134.716         134.797         134.884         134.974         135.068    
          135.165         135.267         135.376         135.494         135.622         135.764         135.918         136.077         136.237         136.391    
          136.532         136.658         136.768         136.865         136.947         137.015         137.074         137.127         137.181         137.205    
          137.238         137.254         137.290         137.288         137.334         137.338         137.385         137.450         137.576         137.712    
          137.847         137.980         138.068         138.120         138.098         138.164         138.190         138.242         138.231         138.283    
          138.314         138.369         138.356         138.412         138.443         138.497         138.488         138.544         138.571         138.643    
          138.620         138.679         138.776         138.936         139.100         139.262         139.415         139.568         139.719         139.867    
          140.008         140.139         140.263         140.380         140.490         140.594         140.693         140.787         140.879         140.965    
          141.061         141.115         134.627         134.693         134.768         134.852         134.944         135.041         135.142         135.248    
          135.358         135.476         135.602         135.741         135.894         136.053         136.215         136.378         136.533         136.671    
          136.791         136.896         136.985         137.061         137.127         137.185         137.238         137.294         137.360         137.401    
          137.447         137.453         137.501         137.507         137.560         137.560         137.612         137.680         137.810         137.893    
          137.947         137.931         138.000         138.020         138.072         138.070         138.122         138.141         138.207         138.191    
          138.242         138.321         138.454         138.589         138.731         138.886         139.046         139.213         139.376         139.531    
          139.685         139.833         139.976         140.110         140.232         140.346         140.451         140.546         140.632         140.711    
          140.785         140.865         140.919         134.750         134.827         134.916         135.012         135.115         135.224         135.339    
          135.459         135.586         135.724         135.873         136.031         136.196         136.364         136.531         136.684         136.816    
          136.929         137.027         137.110         137.182         137.246         137.304         137.358         137.418         137.486         137.577    
          137.629         137.680         137.689         137.742         137.744         137.795         137.808         137.859         137.866         137.918    
          137.928         137.980         137.987         138.055         138.050         138.101         138.175         138.298         138.425         138.561    
          138.696         138.842         138.997         139.157         139.326         139.493         139.650         139.800         139.944         140.081    
          140.206         140.320         140.424         140.515         140.591         140.658         140.717         140.761         134.897         134.989    
          135.089         135.199         135.316         135.440         135.570         135.708         135.855         136.011         136.177         136.348    
          136.523         136.691         136.840         136.964         137.071         137.163         137.241         137.310         137.372         137.430    
          137.490         137.557         137.634         137.729         137.830         137.942         138.062         138.183         138.306         138.424    
          138.547         138.677         138.809         138.956         139.110         139.268         139.438         139.606         139.759         139.906    
          140.046         140.174         140.289         140.396         140.491         140.565         140.619         140.663         135.071         135.175    
          135.291         135.416         135.550         135.689         135.836         135.991         136.155         136.328         136.507         136.688    
          136.856         136.998         137.115         137.216         137.301         137.373         137.438         137.501         137.567         137.639    
          137.716         137.812         137.916         138.020         138.130         138.244         138.355         138.463         138.570         138.682    
          138.801         138.927         139.070         139.218         139.369         139.530         139.695         139.846         139.990         140.125    
          140.243         140.345         140.446         140.534         140.592         135.271         135.393         135.528         135.670         135.814    
          135.967         136.129         136.301         136.481         136.668         136.852         137.017         137.152         137.262         137.353    
          137.429         137.495         137.560         137.627         137.703         137.792         137.899         138.030         138.158         138.270    
          138.375         138.468         138.551         138.633         138.717         138.810         138.913         139.032         139.165         139.301    
          139.436         139.579         139.746         139.898         140.040         140.170         140.278         140.351         135.509         135.650    
          135.794         135.941         136.096         136.262         136.440         136.625         136.815         137.000         137.161         137.291    
          137.392         137.472         137.538         137.595         137.654         137.718         137.803         137.916         138.067         138.254    
          138.417         138.544         138.629         138.676         138.717         138.765         138.823         138.897         138.987         139.098    
          139.221         139.346         139.460         139.545         135.781         135.922         136.064         136.215         136.380         136.560    
          136.749         136.939         137.124         137.281         137.406         137.497         137.565         137.618         137.654         137.695    
          136.050         136.182         136.316         136.475         136.657         136.845         137.037         137.219         137.371         137.491    
          137.571         137.620         137.660         136.289         136.379         136.536         136.719         136.902         137.098         137.280    
          137.427         137.538         137.603    

 HEAD WILL BE SAVED ON UNIT 1020 AT END OF TIME STEP    1, STRESS PERIOD    1

 SFR PACKAGE (SFR) STAGES FOR EACH CONTROL VOLUME   PERIOD      1   STEP        1
 -------------------------------------------------------------------------------------------------------------
                                                                                      STREAMBED    STREAMBED  
   NUMBER   CELLID                  STAGE        DEPTH        WIDTH       GWF HEAD   CONDUCTANCE    GRADIENT  
 -------------------------------------------------------------------------------------------------------------
     1      (1,3210)              143.61       0.0000       0.0000       141.71       1016.1       1.0000     
     2      (1,3208)              143.50       0.0000       0.0000       141.47       319.68       1.0000     
     3      (1,3206)              143.45       0.0000       0.0000       141.47       615.17       1.0000     
     4      (1,3205)              143.45       0.0000       0.0000       141.33       955.58       1.0000     
     5      (1,3202)              143.45       0.0000       0.0000       141.20       490.75       1.0000     
     6      (1,3094)              143.45       0.0000       0.0000       141.18       478.66       1.0000     
     7      (1,3093)              143.42       0.0000       0.0000       141.08       1093.8       1.0000     
     8      (1,3090)              143.33       0.0000       0.0000       140.97       60.480       1.0000     
     9      (1,3088)              143.33       0.0000       0.0000       140.96       862.27       1.0000     
     10     (1,3087)              143.33       0.0000       0.0000       140.86       978.05       1.0000     
     11     (1,2975)              143.33       0.0000       0.0000       140.84       371.52       1.0000     
     12     (1,2972)              143.33       0.0000       0.0000       140.74       584.06       1.0000     
     13     (1,2970)              143.28       0.0000       0.0000       140.72       998.78       1.0000     
     14     (1,2969)              143.25       0.0000       0.0000       140.63       98.496       1.0000     
     15     (1,2817)              143.14       0.0000       0.0000       140.60       917.57       1.0000     
     16     (1,2814)              143.14       0.0000       0.0000       140.52       910.66       1.0000     
     17     (1,2813)              143.14       0.0000       0.0000       140.43       65.664       1.0000     
     18     (1,2965)              143.14       0.0000       0.0000       140.46       812.16       1.0000     
     19     (1,2962)              143.07       0.0000       0.0000       140.37       870.91       1.0000     
     20     (1,2961)              143.07       0.0000       0.0000       140.29       278.21       1.0000     
     21     (1,2809)              143.07       0.0000       0.0000       140.26       603.07       1.0000     
     22     (1,2806)              143.07       0.0000       0.0000       140.16       893.38       1.0000     
     23     (1,2805)              143.07       0.0000       0.0000       140.10       884.74       1.0000     
     24     (1,2802)              143.07       0.0000       0.0000       140.00       910.66       1.0000     
     25     (1,2801)              143.07       0.0000       0.0000       139.93       153.79       1.0000     
     26     (1,2799)              143.03       0.0000       0.0000       139.91       781.06       1.0000     
     27     (1,2796)              143.03       0.0000       0.0000       139.82       889.92       1.0000     
     28     (1,2795)              143.03       0.0000       0.0000       139.76       877.82       1.0000     
     29     (1,2792)              143.03       0.0000       0.0000       139.67       884.74       1.0000     
     30     (1,2791)              143.03       0.0000       0.0000       139.61       896.83       1.0000     
     31     (1,2788)              143.03       0.0000       0.0000       139.52       172.80       1.0000     
     32     (1,2790)              143.03       0.0000       0.0000       139.55       730.94       1.0000     
     33     (1,2789)              143.03       0.0000       0.0000       139.48       908.93       1.0000     
     34     (1,2786)              143.03       0.0000       0.0000       139.40       891.65       1.0000     
     35     (1,2785)              143.03       0.0000       0.0000       139.32       454.46       1.0000     
     36     (1,2952)              143.03       0.0000       0.0000       139.35       442.37       1.0000     
     37     (1,2949)              143.03       0.0000       0.0000       139.26       881.28       1.0000     
     38     (1,2948)              143.03       0.0000       0.0000       139.20       881.28       1.0000     
     39     (1,2945)              143.01       0.0000       0.0000       139.11       902.02       1.0000     
     40     (1,2944)              142.55       0.0000       0.0000       139.05       806.98       1.0000     
     41     (1,2946)              142.55       0.0000       0.0000       139.07       82.944       1.0000     
     42     (1,2943)              142.05       0.0000       0.0000       138.99       902.02       1.0000     
     43     (1,2942)              141.75       0.0000       0.0000       138.92       898.56       1.0000     
     44     (1,2939)              141.22       0.0000       0.0000       138.84       876.10       1.0000     
     45     (1,2938)              140.98       0.0000       0.0000       138.77       926.21       1.0000     
     46     (1,3071)              140.62       0.0000       0.0000       138.79       5.1840       1.0000     
     47     (1,3068)              140.43       0.0000       0.0000       138.71       1069.6       1.0000     
     48     (1,3067)              140.43       0.0000       0.0000       138.65       362.88       1.0000     
     49     (1,3069)              140.05       0.0000       0.0000       138.68       713.66       1.0000     
     50     (1,3066)              140.05       0.0000       0.0000       138.61       705.02       1.0000     
     51     (1,3183)              139.72       0.0000       0.0000       138.63       412.99       1.0000     
     52     (1,3182)              139.72       0.0000       0.0000       138.57       983.23       1.0000     
     53     (1,3184)              139.56       0.0000       0.0000       138.60       190.08       0.95706    
     54     (1,3181)              139.54       0.0000       0.0000       138.54       886.46       1.0000     
     55     (1,3262)              139.39       0.0000       0.0000       138.57       635.90       0.82196    
     56     (1,3261)              139.36       0.0000       0.0000       138.50       435.46       0.86068    
     57     (1,3263)              139.20       0.0000       0.0000       138.53       955.58       0.67365    
     58     (1,3330)              139.02       0.0000       0.0000       138.56       884.74       0.45737    
     59     (1,3332)              138.96       0.0000       0.0000       138.60       539.14       0.36015    
     60     (1,3329)              138.89       0.0000       0.0000       138.53       447.55       0.35833    
     61     (1,3410)              138.89       0.0000       0.0000       138.57       857.09       0.32296    
     62     (1,3409)              138.84       0.0000       0.0000       138.50       364.61       0.33905    
     63     (1,3411)              138.84       0.0000       0.0000       138.54       627.26       0.30126    
     64     (1,3408)              138.65       0.0000       0.0000       138.46       978.05       0.18532    
     65     (1,3407)              138.58       0.0000       0.0000       138.41       883.01       0.16962    
     66     (1,3404)              138.49       0.0000       0.0000       138.34       903.74       0.15235    
     67     (1,3403)              138.33       0.0000       0.0000       138.28       896.83       4.64754E-02
     68     (1,3400)              138.33       0.0000       0.0000       138.22       910.66       0.11457    
     69     (1,3399)              138.33       0.0000       0.0000       138.16       926.21       0.16877    
     70     (1,3396)              138.33       0.0000       0.0000       138.10       38.016       0.23298    
     71     (1,3479)              138.33       0.0000       0.0000       138.13       926.21       0.19693    
     72     (1,3478)              138.33       0.0000       0.0000       138.07       927.94       0.26338    
     73     (1,3475)              138.33       0.0000       0.0000       138.00       336.96       0.33255    
     74     (1,3477)              138.33       0.0000       0.0000       138.04       585.79       0.28905    
     75     (1,3476)              138.33       0.0000       0.0000       137.99       910.66       0.34170    
     76     (1,3473)              138.33       0.0000       0.0000       137.92       910.66       0.40601    
     77     (1,3472)              138.33       0.0000       0.0000       137.86       321.41       0.47059    
     78     (1,3543)              138.33       0.0000       0.0000       137.91       589.25       0.41858    
     79     (1,3540)              138.33       0.0000       0.0000       137.84       900.29       0.49244    
     80     (1,3539)              138.33       0.0000       0.0000       137.79       927.94       0.53729    
     81     (1,3536)              138.33       0.0000       0.0000       137.72       872.64       0.60656    
     82     (1,3535)              138.33       0.0000       0.0000       137.68       1164.7       0.64977    
     83     (1,3532)              138.33       0.0000       0.0000       137.63       190.08       0.70291    
     84     (1,3467)              138.33       0.0000       0.0000       137.57       1031.6       0.75912    
     85     (1,3466)              138.24       0.0000       0.0000       137.53       190.08       0.71469    
     86     (1,3464)              138.24       0.0000       0.0000       137.48       1031.6       0.75850    
     87     (1,3461)              137.98       0.0000       0.0000       137.42       190.08       0.56246    
     88     (1,3387)              137.98       0.0000       0.0000       137.36       1031.6       0.62007    
     89     (1,3386)              137.56       0.0000       0.0000       137.32       190.08       0.24424    
     90     (1,3384)              137.56       0.0000       0.0000       137.26       1031.6       0.29565    
     91     (1,3381)              137.21       0.0000       0.0000       137.20       190.08       5.86277E-03
     92     (1,3315)              137.21       0.0000       0.0000       137.14       1031.6       7.26793E-02
     93     (1,3314)              137.20       0.0000       0.0000       137.08       190.08       0.11501    
     94     (1,3312)              137.11       0.0000       0.0000       137.02       1099.0       8.90391E-02
     95     (1,3248)              136.90       1.68948E-03  2.0000       136.92       421.63      -2.07069E-02
     96     (1,3245)              136.64       7.88693E-03  2.0000       136.79       644.54      -0.14953    
     97     (1,3243)              136.64       1.40852E-02  2.0000       136.73       981.50      -9.07236E-02
     98     (1,3140)              136.65       1.70129E-02  2.0000       136.72       297.22      -7.28659E-02
     99     (1,3137)              136.65       1.85441E-02  2.0000       136.70       803.52      -5.18544E-02
    100     (1,3132)              136.65       2.01502E-02  2.0000       136.68       983.23      -2.90956E-02
    101     (1,3012)              136.65       2.10218E-02  2.0000       136.66       1054.1      -1.05715E-02
    102     (1,3010)              136.65       2.11686E-02  2.0000       136.64       632.45       6.86334E-03
    103     (1,3011)              136.65       2.13886E-02  2.0000       136.66       1263.2      -1.15579E-02
    104     (1,3017)              136.65       2.21134E-02  2.0000       136.71       336.96      -5.84339E-02
    105     (1,2866)              136.65       2.27974E-02  2.0000       136.67       910.66      -1.46767E-02
    106     (1,2864)              136.65       2.28906E-02  2.0000       136.64       615.17       1.43169E-02
    107     (1,2865)              136.65       2.29577E-02  2.0000       136.68       457.92      -2.64097E-02
    108     (1,2709)              136.65       2.30020E-02  2.0000       136.63       432.00       2.29603E-02
    109     (1,2707)              136.59       2.28484E-02  2.0000       136.60       584.06      -4.09757E-03
    110     (1,2705)              136.51       2.34118E-02  2.0000       136.54       864.00      -2.93693E-02
    111     (1,2606)              136.39       2.51617E-02  2.0000       136.45       934.85      -6.81678E-02
    112     (1,2604)              136.33       2.75145E-02  2.0000       136.40       864.00      -7.25897E-02
    113     (1,2534)              136.33       2.92686E-02  2.0000       136.37       872.64      -4.17091E-02
    114     (1,2532)              136.33       3.02611E-02  2.0000       136.36       867.46      -2.47629E-02
    115     (1,2449)              136.33       3.06244E-02  2.0000       136.33       430.27      -5.58533E-05
    116     (1,2448)              136.33       3.02778E-02  2.0000       136.29       546.05       3.76189E-02
    117     (1,2446)              136.31       2.90742E-02  2.0000       136.26       1021.2       4.84737E-02
    118     (1,2353)              136.31       2.78805E-02  2.0000       136.19       148.61       0.12168    
    119     (1,2350)              136.08       2.80298E-02  2.0000       136.11       943.49      -2.80179E-02
    120     (1,2348)              136.08       2.82679E-02  2.0000       136.05       508.03       2.57005E-02
    121     (1,2347)              136.01       2.79857E-02  2.0000       136.00       565.06       4.94011E-03
    122     (1,2271)              135.93       2.79323E-02  2.0000       135.93       855.36       2.31686E-04
    123     (1,2272)              135.93       2.80918E-02  2.0000       135.97       200.45      -4.55492E-02
    124     (1,2270)              135.93       2.79005E-02  2.0000       135.91       888.19       2.23333E-02
    125     (1,2273)              135.92       2.78424E-02  2.0000       135.94       888.19      -1.86822E-02
    126     (1,2274)              135.92       2.89833E-02  2.0000       135.98       739.58      -6.47745E-02
    127     (1,2185)              135.92       2.97514E-02  2.0000       135.90       205.63       1.70899E-02
    128     (1,2188)              135.91       3.03969E-02  2.0000       135.96       924.48      -4.47966E-02
    129     (1,2186)              135.67       3.34120E-02  2.0000       135.83       907.20      -0.15732    
    130     (1,2093)              135.68       3.75880E-02  2.0000       135.79       1152.6      -0.11376    
    131     (1,2090)              135.60       4.09062E-02  2.0000       135.72       888.19      -0.11433    
    132     (1,2089)              135.60       4.31529E-02  2.0000       135.67       926.21      -6.83932E-02
    133     (1,2086)              135.52       4.51870E-02  2.0000       135.62       910.66      -9.98958E-02
    134     (1,2085)              135.52       4.68408E-02  2.0000       135.60       433.73      -8.75319E-02
    135     (1,2083)              135.49       4.79534E-02  2.0000       135.55       860.54      -5.86928E-02
    136     (1,2080)              135.49       4.87048E-02  2.0000       135.53       229.82      -4.36166E-02
    137     (1,1971)              135.43       4.93674E-02  2.0000       135.47       993.60      -4.41566E-02
    138     (1,1969)              135.41       5.03507E-02  2.0000       135.45       1054.1      -3.51028E-02
    139     (1,1972)              135.41       5.13850E-02  2.0000       135.47       870.91      -5.65047E-02
    140     (1,1973)              135.37       5.32972E-02  2.0000       135.49       974.59      -0.11619    
    141     (1,1976)              135.38       5.52418E-02  2.0000       135.58       273.02      -0.20513    
    142     (1,1836)              135.38       5.75004E-02  2.0000       135.54       903.74      -0.16110    
    143     (1,1831)              135.38       5.92616E-02  2.0000       135.58       77.760      -0.19708    
    144     (1,1833)              135.38       6.02084E-02  2.0000       135.53       494.21      -0.14675    
    145     (1,1828)              135.38       6.19014E-02  2.0000       135.50       746.50      -0.11635    
    146     (1,1684)              135.38       6.34331E-02  2.0000       135.56       342.14      -0.17495    
    147     (1,1683)              135.39       6.50539E-02  2.0000       135.49       914.11      -0.10721    
    148     (1,1680)              135.39       6.67820E-02  2.0000       135.47       914.11      -8.00888E-02
    149     (1,1679)              135.39       6.77446E-02  2.0000       135.47       302.40      -7.75452E-02
    150     (1,1823)              135.35       6.84539E-02  2.0000       135.42       668.74      -7.23319E-02
    151     (1,1820)              135.35       6.93889E-02  2.0000       135.40       969.41      -4.85406E-02
    152     (1,1822)              135.33       7.03143E-02  2.0000       135.38       955.58      -5.04870E-02
    153     (1,1965)              135.33       7.12116E-02  2.0000       135.38       910.66      -4.93704E-02
    154     (1,1967)              135.33       7.22287E-02  2.0000       135.40       931.39      -6.61835E-02
    155     (1,1966)              135.33       7.31856E-02  2.0000       135.38       896.83      -4.41219E-02
    156     (1,1963)              135.28       7.39960E-02  2.0000       135.33       940.03      -4.98210E-02
    157     (1,1962)              135.20       7.49547E-02  2.0000       135.29       648.00      -8.67385E-02
    158     (1,1960)              135.14       7.60154E-02  2.0000       135.28       421.63      -0.13950    
    159     (1,1957)              135.09       7.70739E-02  2.0000       135.22       435.46      -0.13100    
    160     (1,1956)              135.09       7.81191E-02  2.0000       135.21       497.66      -0.11736    
    161     (1,1953)              135.09       7.90974E-02  2.0000       135.22       400.90      -0.12620    
    162     (1,1958)              135.09       8.01901E-02  2.0000       135.21       587.52      -0.12292    
    163     (1,1952)              135.09       8.15573E-02  2.0000       135.18       910.66      -9.11641E-02
    164     (1,1951)              135.09       8.28971E-02  2.0000       135.17       872.64      -8.11372E-02
    165     (1,1948)              135.09       8.40108E-02  2.0000       135.16       865.73      -6.73699E-02
    166     (1,1947)              135.09       8.49493E-02  2.0000       135.15       870.91      -5.90088E-02
    167     (1,1944)              135.10       8.57183E-02  2.0000       135.14       874.37      -4.47231E-02
    168     (1,1943)              135.10       8.63062E-02  2.0000       135.13       865.73      -3.51725E-02
    169     (1,1940)              135.09       8.67478E-02  2.0000       135.11       870.91      -2.52593E-02
    170     (1,1939)              135.06       8.71818E-02  2.0000       135.09       879.55      -3.37980E-02
    171     (1,1936)              135.06       8.75528E-02  2.0000       135.07       881.28      -1.65915E-02
    172     (1,1935)              135.06       8.77145E-02  2.0000       135.06       900.29      -5.27392E-03
    173     (1,1932)              135.06       8.76855E-02  2.0000       135.04       487.30       1.68758E-02
    174     (1,1930)              134.99       8.77320E-02  2.0000       135.02       461.38      -2.99061E-02
    175     (1,1929)              134.99       8.79171E-02  2.0000       135.00       946.94      -8.87659E-03
    176     (1,1926)              134.99       8.79122E-02  2.0000       134.97       589.25       1.52607E-02
    177     (1,1804)              134.98       8.77565E-02  2.0000       134.95       406.08       2.38367E-02
    178     (1,1803)              134.86       8.79641E-02  2.0000       134.89       965.95      -3.58045E-02
    179     (1,1800)              134.86       8.83188E-02  2.0000       134.87       577.15      -1.39810E-02
    180     (1,1798)              134.86       8.84302E-02  2.0000       134.87       428.54      -1.24898E-02
    181     (1,1797)              134.86       8.84381E-02  2.0000       134.85       905.47       4.86188E-03
    182     (1,1794)              134.86       8.82964E-02  2.0000       134.83       539.14       2.35061E-02
    183     (1,1653)              134.86       8.79897E-02  2.0000       134.83       864.00       2.80178E-02
    184     (1,1651)              134.86       8.75008E-02  2.0000       134.81       774.14       4.44404E-02
    185     (1,1654)              134.82       8.72491E-02  2.0000       134.83       502.85      -8.56941E-03
    186     (1,1521)              134.81       8.72608E-02  2.0000       134.80       907.20       3.20574E-03
    187     (1,1519)              134.81       8.71347E-02  2.0000       134.79       883.01       1.37541E-02
    188     (1,1394)              134.81       8.67490E-02  2.0000       134.77       902.02       3.74900E-02
    189     (1,1392)              134.80       8.59429E-02  2.0000       134.73       900.29       6.86406E-02
    190     (1,1266)              134.47       8.62102E-02  2.0000       134.57       927.94      -0.10070    
    191     (1,1264)              134.36       8.79903E-02  2.0000       134.50       853.63      -0.13931    
    192     (1,1261)              134.36       8.90981E-02  2.0000       134.48       122.69      -0.11980    
    193     (1,1153)              134.26       9.02645E-02  2.0000       134.39       991.87      -0.12823    
    194     (1,1151)              134.26       9.19666E-02  2.0000       134.39       628.99      -0.13047    
    195     (1,1150)              134.26       9.29473E-02  2.0000       134.37       361.15      -0.10989    
    196     (1,1063)              134.26       9.39033E-02  2.0000       134.35       979.78      -8.14765E-02
    197     (1,1061)              134.27       9.51204E-02  2.0000       134.35       889.92      -8.25839E-02
    198     (1,968)               134.27       9.58607E-02  2.0000       134.38       186.62      -0.10940    
    199     (1,965)               134.18       9.63160E-02  2.0000       134.30       297.22      -0.12639    
    200     (1,963)               134.18       9.70541E-02  2.0000       134.29       516.67      -0.11001    
    201     (1,960)               134.18       9.80535E-02  2.0000       134.31       546.05      -0.13139    
    202     (1,959)               134.18       9.91937E-02  2.0000       134.27       848.45      -8.96109E-02
    203     (1,878)               134.18       0.10010      2.0000       134.30       354.24      -0.11895    
    204     (1,875)               134.18       0.10088      2.0000       134.26       803.52      -7.50763E-02
    205     (1,873)               134.18       0.10176      2.0000       134.27       608.26      -9.07439E-02
    206     (1,872)               134.18       0.10244      2.0000       134.25       521.86      -6.71588E-02
    207     (1,794)               134.18       0.10314      2.0000       134.25       822.53      -7.12008E-02
    208     (1,791)               134.18       0.10369      2.0000       134.24       252.29      -5.95650E-02
    209     (1,789)               134.18       0.10427      2.0000       134.24       1130.1      -5.52604E-02
    210     (1,712)               134.18       0.10474      2.0000       134.27       12.096      -9.00486E-02
    211     (1,711)               134.19       0.10508      2.0000       134.22       1138.8      -3.92295E-02
    212     (1,709)               134.19       0.10548      2.0000       134.25       169.34      -6.10200E-02
    213     (1,706)               134.19       0.10567      2.0000       134.20       927.94      -1.63316E-02
    214     (1,630)               134.10       0.10610      2.0000       134.19       483.84      -8.99453E-02
    215     (1,629)               134.10       0.10666      2.0000       134.15       578.88      -5.50408E-02
    216     (1,627)               134.10       0.10720      2.0000       134.15       855.36      -5.04352E-02
    217     (1,624)               134.10       0.10759      2.0000       134.13       361.15      -2.74749E-02
    218     (1,549)               134.10       0.10772      2.0000       134.11       936.58      -7.97382E-03
    219     (1,547)               133.93       0.10838      2.0000       134.06       627.26      -0.13288    
    220     (1,546)               133.93       0.10966      2.0000       134.03       976.32      -9.67783E-02
    221     (1,543)               133.93       0.11035      2.0000       134.04       15.552      -0.10573    
    222     (1,469)               133.93       0.11089      2.0000       134.00       1042.0      -7.06070E-02
    223     (1,467)               133.93       0.11191      2.0000       134.00       1024.7      -6.90548E-02
    224     (1,394)               133.93       0.11270      2.0000       134.04       388.80      -0.10332    
    225     (1,393)               133.93       0.11340      2.0000       134.00       927.94      -6.37359E-02
    226     (1,390)               133.93       0.11411      2.0000       133.98       889.92      -4.74953E-02
    227     (1,389)               133.93       0.11466      2.0000       133.97       919.30      -4.00171E-02
    228     (1,387)               133.93       0.11499      2.0000       134.00       160.70      -6.16089E-02
    229     (1,384)               133.94       0.11531      2.0000       133.97       1038.5      -3.54843E-02
    230     (1,383)               133.94       0.11564      2.0000       133.97       326.59      -3.03346E-02
    231     (1,302)               133.94       0.11587      2.0000       133.97       701.57      -3.38984E-02
    232     (1,299)               133.94       0.11615      2.0000       133.95       907.20      -1.78323E-02
    233     (1,297)               133.94       0.11628      2.0000       133.97       119.23      -2.93697E-02
    234     (1,296)               133.94       0.11639      2.0000       133.95       921.02      -1.24289E-02
    235     (1,293)               133.94       0.11645      2.0000       133.93       884.74       2.80329E-03
    236     (1,292)               133.94       0.11634      2.0000       133.92       908.93       1.43117E-02
    237     (1,289)               133.94       0.11622      2.0000       133.89       114.05       4.27860E-02
    238     (1,250)               133.94       0.11596      2.0000       133.89       789.70       4.13139E-02
    239     (1,249)               133.94       0.11522      2.0000       133.86       979.78       7.50789E-02
    240     (1,246)               133.70       0.11482      2.0000       133.75       387.07      -4.15399E-02
    241     (1,244)               133.63       0.11521      2.0000       133.69       644.54      -6.22662E-02
    242     (1,243)               133.40       0.11649      2.0000       133.58       786.24      -0.18290    
    243     (1,209)               133.40       0.11797      2.0000       133.58       402.62      -0.17759    
    244     (1,206)               133.40       0.11915      2.0000       133.52       819.07      -0.12365    
    245     (1,204)               133.40       0.12021      2.0000       133.54       402.62      -0.13761    
    246     (1,203)               133.40       0.12116      2.0000       133.50       819.07      -0.10351    
    247     (1,171)               133.40       0.12205      2.0000       133.53       399.17      -0.12300    
    248     (1,168)               133.40       0.12297      2.0000       133.49       1017.8      -8.69946E-02
    249     (1,166)               133.40       0.12361      2.0000       133.53       57.024      -0.13007    
    250     (1,165)               133.40       0.12428      2.0000       133.48       1164.7      -7.97912E-02
    251     (1,135)               133.40       0.12494      2.0000       133.53       57.024      -0.12810    
    252     (1,132)               133.41       0.12555      2.0000       133.48       1164.7      -7.39602E-02
    253     (1,130)               133.41       0.12616      2.0000       133.53       57.024      -0.11938    
    254     (1,129)               133.41       0.12674      2.0000       133.48       1164.7      -7.03508E-02
    255     (1,101)               133.41       0.12732      2.0000       133.53       57.024      -0.11773    
    256     (1,98)                133.41       0.12787      2.0000       133.48       1164.7      -6.74794E-02
    257     (1,96)                133.41       0.12843      2.0000       133.52       57.024      -0.11174    
    258     (1,95)                133.41       0.12895      2.0000       133.47       1164.7      -6.48798E-02
    259     (1,69)                133.41       0.12948      2.0000       133.52       57.024      -0.11186    
    260     (1,66)                133.41       0.12999      2.0000       133.47       1178.5      -6.11346E-02
    261     (1,65)                133.41       0.13047      2.0000       133.49       48.384      -7.69917E-02
    262     (1,63)                133.40       0.13093      2.0000       133.46       1061.0      -6.39582E-02
    263     (1,60)                133.40       0.13148      2.0000       133.46       288.58      -6.09598E-02
    264     (1,36)                133.28       0.13236      2.0000       133.41       934.85      -0.12952    
    265     (1,35)                133.28       0.13345      2.0000       133.43       357.70      -0.14436    
    266     (1,33)                133.28       0.13439      2.0000       133.42       708.48      -0.13875    
    267     (1,30)                133.29       0.13559      2.0000       133.43       634.18      -0.14786    
    268     (1,8)                 133.29       0.13686      2.0000       133.47       589.25      -0.18743    
    269     (1,7)                 133.29       0.13836      2.0000       133.50       634.18      -0.20699    
    270     (1,5)                 133.29       0.13930      2.0000       133.62       69.120      -0.32937    
 -------------------------------------------------------------------------------------------------------------



 SFR PACKAGE - SUMMARY OF FLOWS FOR EACH CONTROL VOLUME   PERIOD      1   STEP        1
 ------------------------------------------------------------------------------------------------------------------------------------------------------------------------------
                                                                                                                                                                     PERCENT   
   NUMBER   CELLID                  INFLOW      OUTFLOW        GWF        RAINFALL   EVAPORATION     RUNOFF     EXT INFLOW  EXT OUTFLOW    STORAGE      IN - OUT    DIFFERENCE 
 ------------------------------------------------------------------------------------------------------------------------------------------------------------------------------
     1      (1,3210)              0.0000       0.0000       0.0000       0.0000       0.0000       0.0000       0.0000       0.0000       0.0000       0.0000       0.0000     
     2      (1,3208)              0.0000       0.0000       0.0000       0.0000       0.0000       0.0000       0.0000       0.0000       0.0000       0.0000       0.0000     
     3      (1,3206)              0.0000       0.0000       0.0000       0.0000       0.0000       0.0000       0.0000       0.0000       0.0000       0.0000       0.0000     
     4      (1,3205)              0.0000       0.0000       0.0000       0.0000       0.0000       0.0000       0.0000       0.0000       0.0000       0.0000       0.0000     
     5      (1,3202)              0.0000       0.0000       0.0000       0.0000       0.0000       0.0000       0.0000       0.0000       0.0000       0.0000       0.0000     
     6      (1,3094)              0.0000       0.0000       0.0000       0.0000       0.0000       0.0000       0.0000       0.0000       0.0000       0.0000       0.0000     
     7      (1,3093)              0.0000       0.0000       0.0000       0.0000       0.0000       0.0000       0.0000       0.0000       0.0000       0.0000       0.0000     
     8      (1,3090)              0.0000       0.0000       0.0000       0.0000       0.0000       0.0000       0.0000       0.0000       0.0000       0.0000       0.0000     
     9      (1,3088)              0.0000       0.0000       0.0000       0.0000       0.0000       0.0000       0.0000       0.0000       0.0000       0.0000       0.0000     
     10     (1,3087)              0.0000       0.0000       0.0000       0.0000       0.0000       0.0000       0.0000       0.0000       0.0000       0.0000       0.0000     
     11     (1,2975)              0.0000       0.0000       0.0000       0.0000       0.0000       0.0000       0.0000       0.0000       0.0000       0.0000       0.0000     
     12     (1,2972)              0.0000       0.0000       0.0000       0.0000       0.0000       0.0000       0.0000       0.0000       0.0000       0.0000       0.0000     
     13     (1,2970)              0.0000       0.0000       0.0000       0.0000       0.0000       0.0000       0.0000       0.0000       0.0000       0.0000       0.0000     
     14     (1,2969)              0.0000       0.0000       0.0000       0.0000       0.0000       0.0000       0.0000       0.0000       0.0000       0.0000       0.0000     
     15     (1,2817)              0.0000       0.0000       0.0000       0.0000       0.0000       0.0000       0.0000       0.0000       0.0000       0.0000       0.0000     
     16     (1,2814)              0.0000       0.0000       0.0000       0.0000       0.0000       0.0000       0.0000       0.0000       0.0000       0.0000       0.0000     
     17     (1,2813)              0.0000       0.0000       0.0000       0.0000       0.0000       0.0000       0.0000       0.0000       0.0000       0.0000       0.0000     
     18     (1,2965)              0.0000       0.0000       0.0000       0.0000       0.0000       0.0000       0.0000       0.0000       0.0000       0.0000       0.0000     
     19     (1,2962)              0.0000       0.0000       0.0000       0.0000       0.0000       0.0000       0.0000       0.0000       0.0000       0.0000       0.0000     
     20     (1,2961)              0.0000       0.0000       0.0000       0.0000       0.0000       0.0000       0.0000       0.0000       0.0000       0.0000       0.0000     
     21     (1,2809)              0.0000       0.0000       0.0000       0.0000       0.0000       0.0000       0.0000       0.0000       0.0000       0.0000       0.0000     
     22     (1,2806)              0.0000       0.0000       0.0000       0.0000       0.0000       0.0000       0.0000       0.0000       0.0000       0.0000       0.0000     
     23     (1,2805)              0.0000       0.0000       0.0000       0.0000       0.0000       0.0000       0.0000       0.0000       0.0000       0.0000       0.0000     
     24     (1,2802)              0.0000       0.0000       0.0000       0.0000       0.0000       0.0000       0.0000       0.0000       0.0000       0.0000       0.0000     
     25     (1,2801)              0.0000       0.0000       0.0000       0.0000       0.0000       0.0000       0.0000       0.0000       0.0000       0.0000       0.0000     
     26     (1,2799)              0.0000       0.0000       0.0000       0.0000       0.0000       0.0000       0.0000       0.0000       0.0000       0.0000       0.0000     
     27     (1,2796)              0.0000       0.0000       0.0000       0.0000       0.0000       0.0000       0.0000       0.0000       0.0000       0.0000       0.0000     
     28     (1,2795)              0.0000       0.0000       0.0000       0.0000       0.0000       0.0000       0.0000       0.0000       0.0000       0.0000       0.0000     
     29     (1,2792)              0.0000       0.0000       0.0000       0.0000       0.0000       0.0000       0.0000       0.0000       0.0000       0.0000       0.0000     
     30     (1,2791)              0.0000       0.0000       0.0000       0.0000       0.0000       0.0000       0.0000       0.0000       0.0000       0.0000       0.0000     
     31     (1,2788)              0.0000       0.0000       0.0000       0.0000       0.0000       0.0000       0.0000       0.0000       0.0000       0.0000       0.0000     
     32     (1,2790)              0.0000       0.0000       0.0000       0.0000       0.0000       0.0000       0.0000       0.0000       0.0000       0.0000       0.0000     
     33     (1,2789)              0.0000       0.0000       0.0000       0.0000       0.0000       0.0000       0.0000       0.0000       0.0000       0.0000       0.0000     
     34     (1,2786)              0.0000       0.0000       0.0000       0.0000       0.0000       0.0000       0.0000       0.0000       0.0000       0.0000       0.0000     
     35     (1,2785)              0.0000       0.0000       0.0000       0.0000       0.0000       0.0000       0.0000       0.0000       0.0000       0.0000       0.0000     
     36     (1,2952)              0.0000       0.0000       0.0000       0.0000       0.0000       0.0000       0.0000       0.0000       0.0000       0.0000       0.0000     
     37     (1,2949)              0.0000       0.0000       0.0000       0.0000       0.0000       0.0000       0.0000       0.0000       0.0000       0.0000       0.0000     
     38     (1,2948)              0.0000       0.0000       0.0000       0.0000       0.0000       0.0000       0.0000       0.0000       0.0000       0.0000       0.0000     
     39     (1,2945)              0.0000       0.0000       0.0000       0.0000       0.0000       0.0000       0.0000       0.0000       0.0000       0.0000       0.0000     
     40     (1,2944)              0.0000       0.0000       0.0000       0.0000       0.0000       0.0000       0.0000       0.0000       0.0000       0.0000       0.0000     
     41     (1,2946)              0.0000       0.0000       0.0000       0.0000       0.0000       0.0000       0.0000       0.0000       0.0000       0.0000       0.0000     
     42     (1,2943)              0.0000       0.0000       0.0000       0.0000       0.0000       0.0000       0.0000       0.0000       0.0000       0.0000       0.0000     
     43     (1,2942)              0.0000       0.0000       0.0000       0.0000       0.0000       0.0000       0.0000       0.0000       0.0000       0.0000       0.0000     
     44     (1,2939)              0.0000       0.0000       0.0000       0.0000       0.0000       0.0000       0.0000       0.0000       0.0000       0.0000       0.0000     
     45     (1,2938)              0.0000       0.0000       0.0000       0.0000       0.0000       0.0000       0.0000       0.0000       0.0000       0.0000       0.0000     
     46     (1,3071)              0.0000       0.0000       0.0000       0.0000       0.0000       0.0000       0.0000       0.0000       0.0000       0.0000       0.0000     
     47     (1,3068)              0.0000       0.0000       0.0000       0.0000       0.0000       0.0000       0.0000       0.0000       0.0000       0.0000       0.0000     
     48     (1,3067)              0.0000       0.0000       0.0000       0.0000       0.0000       0.0000       0.0000       0.0000       0.0000       0.0000       0.0000     
     49     (1,3069)              0.0000       0.0000       0.0000       0.0000       0.0000       0.0000       0.0000       0.0000       0.0000       0.0000       0.0000     
     50     (1,3066)              0.0000       0.0000       0.0000       0.0000       0.0000       0.0000       0.0000       0.0000       0.0000       0.0000       0.0000     
     51     (1,3183)              0.0000       0.0000       0.0000       0.0000       0.0000       0.0000       0.0000       0.0000       0.0000       0.0000       0.0000     
     52     (1,3182)              0.0000       0.0000       0.0000       0.0000       0.0000       0.0000       0.0000       0.0000       0.0000       0.0000       0.0000     
     53     (1,3184)              0.0000       0.0000       0.0000       0.0000       0.0000       0.0000       0.0000       0.0000       0.0000       0.0000       0.0000     
     54     (1,3181)              0.0000       0.0000       0.0000       0.0000       0.0000       0.0000       0.0000       0.0000       0.0000       0.0000       0.0000     
     55     (1,3262)              0.0000       0.0000       0.0000       0.0000       0.0000       0.0000       0.0000       0.0000       0.0000       0.0000       0.0000     
     56     (1,3261)              0.0000       0.0000       0.0000       0.0000       0.0000       0.0000       0.0000       0.0000       0.0000       0.0000       0.0000     
     57     (1,3263)              0.0000       0.0000       0.0000       0.0000       0.0000       0.0000       0.0000       0.0000       0.0000       0.0000       0.0000     
     58     (1,3330)              0.0000       0.0000       0.0000       0.0000       0.0000       0.0000       0.0000       0.0000       0.0000       0.0000       0.0000     
     59     (1,3332)              0.0000       0.0000       0.0000       0.0000       0.0000       0.0000       0.0000       0.0000       0.0000       0.0000       0.0000     
     60     (1,3329)              0.0000       0.0000       0.0000       0.0000       0.0000       0.0000       0.0000       0.0000       0.0000       0.0000       0.0000     
     61     (1,3410)              0.0000       0.0000       0.0000       0.0000       0.0000       0.0000       0.0000       0.0000       0.0000       0.0000       0.0000     
     62     (1,3409)              0.0000       0.0000       0.0000       0.0000       0.0000       0.0000       0.0000       0.0000       0.0000       0.0000       0.0000     
     63     (1,3411)              0.0000       0.0000       0.0000       0.0000       0.0000       0.0000       0.0000       0.0000       0.0000       0.0000       0.0000     
     64     (1,3408)              0.0000       0.0000       0.0000       0.0000       0.0000       0.0000       0.0000       0.0000       0.0000       0.0000       0.0000     
     65     (1,3407)              0.0000       0.0000       0.0000       0.0000       0.0000       0.0000       0.0000       0.0000       0.0000       0.0000       0.0000     
     66     (1,3404)              0.0000       0.0000       0.0000       0.0000       0.0000       0.0000       0.0000       0.0000       0.0000       0.0000       0.0000     
     67     (1,3403)              0.0000       0.0000       0.0000       0.0000       0.0000       0.0000       0.0000       0.0000       0.0000       0.0000       0.0000     
     68     (1,3400)              0.0000       0.0000       0.0000       0.0000       0.0000       0.0000       0.0000       0.0000       0.0000       0.0000       0.0000     
     69     (1,3399)              0.0000       0.0000       0.0000       0.0000       0.0000       0.0000       0.0000       0.0000       0.0000       0.0000       0.0000     
     70     (1,3396)              0.0000       0.0000       0.0000       0.0000       0.0000       0.0000       0.0000       0.0000       0.0000       0.0000       0.0000     
     71     (1,3479)              0.0000       0.0000       0.0000       0.0000       0.0000       0.0000       0.0000       0.0000       0.0000       0.0000       0.0000     
     72     (1,3478)              0.0000       0.0000       0.0000       0.0000       0.0000       0.0000       0.0000       0.0000       0.0000       0.0000       0.0000     
     73     (1,3475)              0.0000       0.0000       0.0000       0.0000       0.0000       0.0000       0.0000       0.0000       0.0000       0.0000       0.0000     
     74     (1,3477)              0.0000       0.0000       0.0000       0.0000       0.0000       0.0000       0.0000       0.0000       0.0000       0.0000       0.0000     
     75     (1,3476)              0.0000       0.0000       0.0000       0.0000       0.0000       0.0000       0.0000       0.0000       0.0000       0.0000       0.0000     
     76     (1,3473)              0.0000       0.0000       0.0000       0.0000       0.0000       0.0000       0.0000       0.0000       0.0000       0.0000       0.0000     
     77     (1,3472)              0.0000       0.0000       0.0000       0.0000       0.0000       0.0000       0.0000       0.0000       0.0000       0.0000       0.0000     
     78     (1,3543)              0.0000       0.0000       0.0000       0.0000       0.0000       0.0000       0.0000       0.0000       0.0000       0.0000       0.0000     
     79     (1,3540)              0.0000       0.0000       0.0000       0.0000       0.0000       0.0000       0.0000       0.0000       0.0000       0.0000       0.0000     
     80     (1,3539)              0.0000       0.0000       0.0000       0.0000       0.0000       0.0000       0.0000       0.0000       0.0000       0.0000       0.0000     
     81     (1,3536)              0.0000       0.0000       0.0000       0.0000       0.0000       0.0000       0.0000       0.0000       0.0000       0.0000       0.0000     
     82     (1,3535)              0.0000       0.0000       0.0000       0.0000       0.0000       0.0000       0.0000       0.0000       0.0000       0.0000       0.0000     
     83     (1,3532)              0.0000       0.0000       0.0000       0.0000       0.0000       0.0000       0.0000       0.0000       0.0000       0.0000       0.0000     
     84     (1,3467)              0.0000       0.0000       0.0000       0.0000       0.0000       0.0000       0.0000       0.0000       0.0000       0.0000       0.0000     
     85     (1,3466)              0.0000       0.0000       0.0000       0.0000       0.0000       0.0000       0.0000       0.0000       0.0000       0.0000       0.0000     
     86     (1,3464)              0.0000       0.0000       0.0000       0.0000       0.0000       0.0000       0.0000       0.0000       0.0000       0.0000       0.0000     
     87     (1,3461)              0.0000       0.0000       0.0000       0.0000       0.0000       0.0000       0.0000       0.0000       0.0000       0.0000       0.0000     
     88     (1,3387)              0.0000       0.0000       0.0000       0.0000       0.0000       0.0000       0.0000       0.0000       0.0000       0.0000       0.0000     
     89     (1,3386)              0.0000       0.0000       0.0000       0.0000       0.0000       0.0000       0.0000       0.0000       0.0000       0.0000       0.0000     
     90     (1,3384)              0.0000       0.0000       0.0000       0.0000       0.0000       0.0000       0.0000       0.0000       0.0000       0.0000       0.0000     
     91     (1,3381)              0.0000       0.0000       0.0000       0.0000       0.0000       0.0000       0.0000       0.0000       0.0000       0.0000       0.0000     
     92     (1,3315)              0.0000       0.0000       0.0000       0.0000       0.0000       0.0000       0.0000       0.0000       0.0000       0.0000       0.0000     
     93     (1,3314)              0.0000       0.0000       0.0000       0.0000       0.0000       0.0000       0.0000       0.0000       0.0000       0.0000       0.0000     
     94     (1,3312)              0.0000       0.0000       0.0000       0.0000       0.0000       0.0000       0.0000       0.0000       0.0000       0.0000       0.0000     
     95     (1,3248)              0.0000      -8.7305       8.7305       0.0000       0.0000       0.0000       0.0000       0.0000       0.0000       0.0000       0.0000     
     96     (1,3245)              8.7305      -105.11       96.380       0.0000       0.0000       0.0000       0.0000       0.0000       0.0000       0.0000       0.0000     
     97     (1,3243)              105.11      -194.16       89.045       0.0000       0.0000       0.0000       0.0000       0.0000       0.0000       0.0000       0.0000     
     98     (1,3140)              194.16      -215.81       21.657       0.0000       0.0000       0.0000       0.0000       0.0000       0.0000       0.0000       0.0000     
     99     (1,3137)              215.81      -257.48       41.666       0.0000       0.0000       0.0000       0.0000       0.0000       0.0000       0.0000       0.0000     
    100     (1,3132)              257.48      -286.09       28.608       0.0000       0.0000       0.0000       0.0000       0.0000       0.0000       0.0000       0.0000     
    101     (1,3012)              286.09      -297.23       11.143       0.0000       0.0000       0.0000       0.0000       0.0000       0.0000       0.0000       0.0000     
    102     (1,3010)              297.23      -292.89      -4.3408       0.0000       0.0000       0.0000       0.0000       0.0000       0.0000       0.0000       0.0000     
    103     (1,3011)              292.89      -307.49       14.599       0.0000       0.0000       0.0000       0.0000       0.0000       0.0000       0.0000       0.0000     
    104     (1,3017)              307.49      -327.18       19.690       0.0000       0.0000       0.0000       0.0000       0.0000       0.0000       0.0000       0.0000     
    105     (1,2866)              327.18      -340.54       13.365       0.0000       0.0000       0.0000       0.0000       0.0000       0.0000       0.0000       0.0000     
    106     (1,2864)              340.54      -331.74      -8.8074       0.0000       0.0000       0.0000       0.0000       0.0000       0.0000       0.0000       0.0000     
    107     (1,2865)              331.74      -343.83       12.093       0.0000       0.0000       0.0000       0.0000       0.0000       0.0000       0.0000       0.0000     
    108     (1,2709)              343.83      -333.91      -9.9189       0.0000       0.0000       0.0000       0.0000       0.0000       0.0000       0.0000       0.0000     
    109     (1,2707)              333.91      -336.30       2.3931       0.0000       0.0000       0.0000       0.0000       0.0000       0.0000       0.0000       0.0000     
    110     (1,2705)              336.30      -361.68       25.375       0.0000       0.0000       0.0000       0.0000       0.0000       0.0000       0.0000       0.0000     
    111     (1,2606)              361.68      -425.40       63.726       0.0000       0.0000       0.0000       0.0000       0.0000       0.0000       0.0000       0.0000     
    112     (1,2604)              425.40      -488.12       62.717       0.0000       0.0000       0.0000       0.0000       0.0000       0.0000       0.0000       0.0000     
    113     (1,2534)              488.12      -524.52       36.397       0.0000       0.0000       0.0000       0.0000       0.0000       0.0000       0.0000       0.0000     
    114     (1,2532)              524.52      -546.00       21.480       0.0000       0.0000       0.0000       0.0000       0.0000       0.0000       0.0000       0.0000     
    115     (1,2449)              546.00      -546.02       2.38968E-02  0.0000       0.0000       0.0000       0.0000       0.0000       0.0000       0.0000       0.0000     
    116     (1,2448)              546.02      -525.48      -20.542       0.0000       0.0000       0.0000       0.0000       0.0000       0.0000       0.0000       0.0000     
    117     (1,2446)              525.48      -475.98      -49.504       0.0000       0.0000       0.0000       0.0000       0.0000       0.0000       0.0000       0.0000     
    118     (1,2353)              475.98      -457.89      -18.083       0.0000       0.0000       0.0000       0.0000       0.0000       0.0000       0.0000       0.0000     
    119     (1,2350)              457.89      -484.33       26.434       0.0000       0.0000       0.0000       0.0000       0.0000       0.0000       0.0000       0.0000     
    120     (1,2348)              484.33      -471.27      -13.057       0.0000       0.0000       0.0000       0.0000       0.0000       0.0000       0.0000       0.0000     
    121     (1,2347)              471.27      -468.48      -2.7915       0.0000       0.0000       0.0000       0.0000       0.0000       0.0000       0.0000       0.0000     
    122     (1,2271)              468.48      -468.28      -0.19831      0.0000       0.0000       0.0000       0.0000       0.0000       0.0000       0.0000       0.0000     
    123     (1,2272)              468.28      -477.41       9.1302       0.0000       0.0000       0.0000       0.0000       0.0000       0.0000       0.0000       0.0000     
    124     (1,2270)              477.41      -457.58      -19.836       0.0000       0.0000       0.0000       0.0000       0.0000       0.0000       0.0000       0.0000     
    125     (1,2273)              457.58      -474.17       16.593       0.0000       0.0000       0.0000       0.0000       0.0000       0.0000       0.0000       0.0000     
    126     (1,2274)              474.17      -522.07       47.906       0.0000       0.0000       0.0000       0.0000       0.0000       0.0000       0.0000       0.0000     
    127     (1,2185)              522.07      -518.56      -3.5143       0.0000       0.0000       0.0000       0.0000       0.0000       0.0000       0.0000       0.0000     
    128     (1,2188)              518.56      -559.97       41.413       0.0000       0.0000       0.0000       0.0000       0.0000       0.0000       0.0000       0.0000     
    129     (1,2186)              559.97      -702.70       142.72       0.0000       0.0000       0.0000       0.0000       0.0000       0.0000       0.0000       0.0000     
    130     (1,2093)              702.70      -833.81       131.11       0.0000       0.0000       0.0000       0.0000       0.0000       0.0000       0.0000       0.0000     
    131     (1,2090)              833.81      -935.36       101.55       0.0000       0.0000       0.0000       0.0000       0.0000       0.0000       0.0000       0.0000     
    132     (1,2089)              935.36      -998.70       63.346       0.0000       0.0000       0.0000       0.0000       0.0000       0.0000       0.0000       0.0000     
    133     (1,2086)              998.70      -1089.7       90.970       0.0000       0.0000       0.0000       0.0000       0.0000       0.0000       0.0000       0.0000     
    134     (1,2085)              1089.7      -1127.6       37.965       0.0000       0.0000       0.0000       0.0000       0.0000       0.0000       0.0000       0.0000     
    135     (1,2083)              1127.6      -1178.1       50.508       0.0000       0.0000       0.0000       0.0000       0.0000       0.0000       0.0000       0.0000     
    136     (1,2080)              1178.1      -1188.2       10.024       0.0000       0.0000       0.0000       0.0000       0.0000       0.0000       0.0000       0.0000     
    137     (1,1971)              1188.2      -1232.0       43.874       0.0000       0.0000       0.0000       0.0000       0.0000       0.0000       0.0000       0.0000     
    138     (1,1969)              1232.0      -1269.0       37.001       0.0000       0.0000       0.0000       0.0000       0.0000       0.0000       0.0000       0.0000     
    139     (1,1972)              1269.0      -1318.3       49.210       0.0000       0.0000       0.0000       0.0000       0.0000       0.0000       0.0000       0.0000     
    140     (1,1973)              1318.3      -1431.5       113.24       0.0000       0.0000       0.0000       0.0000       0.0000       0.0000       0.0000       0.0000     
    141     (1,1976)              1431.5      -1487.5       56.006       0.0000       0.0000       0.0000       0.0000       0.0000       0.0000       0.0000       0.0000     
    142     (1,1836)              1487.5      -1633.1       145.60       0.0000       0.0000       0.0000       0.0000       0.0000       0.0000       0.0000       0.0000     
    143     (1,1831)              1633.1      -1648.4       15.325       0.0000       0.0000       0.0000       0.0000       0.0000       0.0000       0.0000       0.0000     
    144     (1,1833)              1648.4      -1720.9       72.526       0.0000       0.0000       0.0000       0.0000       0.0000       0.0000       0.0000       0.0000     
    145     (1,1828)              1720.9      -1807.8       86.856       0.0000       0.0000       0.0000       0.0000       0.0000       0.0000       0.0000       0.0000     
    146     (1,1684)              1807.8      -1867.7       59.858       0.0000       0.0000       0.0000       0.0000       0.0000       0.0000       0.0000       0.0000     
    147     (1,1683)              1867.7      -1965.7       98.001       0.0000       0.0000       0.0000       0.0000       0.0000       0.0000       0.0000       0.0000     
    148     (1,1680)              1965.7      -2038.9       73.210       0.0000       0.0000       0.0000       0.0000       0.0000       0.0000       0.0000       0.0000     
    149     (1,1679)              2038.9      -2062.3       23.450       0.0000       0.0000       0.0000       0.0000       0.0000       0.0000       0.0000       0.0000     
    150     (1,1823)              2062.3      -2110.7       48.371       0.0000       0.0000       0.0000       0.0000       0.0000       0.0000       0.0000       0.0000     
    151     (1,1820)              2110.7      -2157.7       47.055       0.0000       0.0000       0.0000       0.0000       0.0000       0.0000       0.0000       0.0000     
    152     (1,1822)              2157.7      -2206.0       48.244       0.0000       0.0000       0.0000       0.0000       0.0000       0.0000       0.0000       0.0000     
    153     (1,1965)              2206.0      -2250.9       44.959       0.0000       0.0000       0.0000       0.0000       0.0000       0.0000       0.0000       0.0000     
    154     (1,1967)              2250.9      -2312.6       61.643       0.0000       0.0000       0.0000       0.0000       0.0000       0.0000       0.0000       0.0000     
    155     (1,1966)              2312.6      -2352.2       39.570       0.0000       0.0000       0.0000       0.0000       0.0000       0.0000       0.0000       0.0000     
    156     (1,1963)              2352.2      -2399.0       46.833       0.0000       0.0000       0.0000       0.0000       0.0000       0.0000       0.0000       0.0000     
    157     (1,1962)              2399.0      -2455.2       56.206       0.0000       0.0000       0.0000       0.0000       0.0000       0.0000       0.0000       0.0000     
    158     (1,1960)              2455.2      -2514.0       58.817       0.0000       0.0000       0.0000       0.0000       0.0000       0.0000       0.0000       0.0000     
    159     (1,1957)              2514.0      -2571.1       57.044       0.0000       0.0000       0.0000       0.0000       0.0000       0.0000       0.0000       0.0000     
    160     (1,1956)              2571.1      -2629.5       58.406       0.0000       0.0000       0.0000       0.0000       0.0000       0.0000       0.0000       0.0000     
    161     (1,1953)              2629.5      -2680.1       50.593       0.0000       0.0000       0.0000       0.0000       0.0000       0.0000       0.0000       0.0000     
    162     (1,1958)              2680.1      -2752.3       72.220       0.0000       0.0000       0.0000       0.0000       0.0000       0.0000       0.0000       0.0000     
    163     (1,1952)              2752.3      -2835.3       83.019       0.0000       0.0000       0.0000       0.0000       0.0000       0.0000       0.0000       0.0000     
    164     (1,1951)              2835.3      -2906.1       70.803       0.0000       0.0000       0.0000       0.0000       0.0000       0.0000       0.0000       0.0000     
    165     (1,1948)              2906.1      -2964.4       58.324       0.0000       0.0000       0.0000       0.0000       0.0000       0.0000       0.0000       0.0000     
    166     (1,1947)              2964.4      -3015.8       51.391       0.0000       0.0000       0.0000       0.0000       0.0000       0.0000       0.0000       0.0000     
    167     (1,1944)              3015.8      -3054.9       39.104       0.0000       0.0000       0.0000       0.0000       0.0000       0.0000       0.0000       0.0000     
    168     (1,1943)              3054.9      -3085.4       30.450       0.0000       0.0000       0.0000       0.0000       0.0000       0.0000       0.0000       0.0000     
    169     (1,1940)              3085.4      -3107.4       21.998       0.0000       0.0000       0.0000       0.0000       0.0000       0.0000       0.0000       0.0000     
    170     (1,1939)              3107.4      -3137.1       29.727       0.0000       0.0000       0.0000       0.0000       0.0000       0.0000       0.0000       0.0000     
    171     (1,1936)              3137.1      -3151.7       14.622       0.0000       0.0000       0.0000       0.0000       0.0000       0.0000       0.0000       0.0000     
    172     (1,1935)              3151.7      -3156.5       4.7478       0.0000       0.0000       0.0000       0.0000       0.0000       0.0000       0.0000       0.0000     
    173     (1,1932)              3156.5      -3148.2      -8.2236       0.0000       0.0000       0.0000       0.0000       0.0000       0.0000       0.0000       0.0000     
    174     (1,1930)              3148.2      -3162.0       13.798       0.0000       0.0000       0.0000       0.0000       0.0000       0.0000       0.0000       0.0000     
    175     (1,1929)              3162.0      -3170.4       8.4055       0.0000       0.0000       0.0000       0.0000       0.0000       0.0000       0.0000       0.0000     
    176     (1,1926)              3170.4      -3161.5      -8.9924       0.0000       0.0000       0.0000       0.0000       0.0000       0.0000       0.0000       0.0000     
    177     (1,1804)              3161.5      -3151.8      -9.6797       0.0000       0.0000       0.0000       0.0000       0.0000       0.0000       0.0000       0.0000     
    178     (1,1803)              3151.8      -3186.4       34.585       0.0000       0.0000       0.0000       0.0000       0.0000       0.0000       0.0000       0.0000     
    179     (1,1800)              3186.4      -3194.4       8.0691       0.0000       0.0000       0.0000       0.0000       0.0000       0.0000       0.0000       0.0000     
    180     (1,1798)              3194.4      -3199.8       5.3524       0.0000       0.0000       0.0000       0.0000       0.0000       0.0000       0.0000       0.0000     
    181     (1,1797)              3199.8      -3195.4      -4.4024       0.0000       0.0000       0.0000       0.0000       0.0000       0.0000       0.0000       0.0000     
    182     (1,1794)              3195.4      -3182.7      -12.673       0.0000       0.0000       0.0000       0.0000       0.0000       0.0000       0.0000       0.0000     
    183     (1,1653)              3182.7      -3158.5      -24.207       0.0000       0.0000       0.0000       0.0000       0.0000       0.0000       0.0000       0.0000     
    184     (1,1651)              3158.5      -3124.1      -34.403       0.0000       0.0000       0.0000       0.0000       0.0000       0.0000       0.0000       0.0000     
    185     (1,1654)              3124.1      -3128.4       4.3091       0.0000       0.0000       0.0000       0.0000       0.0000       0.0000       0.0000       0.0000     
    186     (1,1521)              3128.4      -3125.5      -2.9083       0.0000       0.0000       0.0000       0.0000       0.0000       0.0000       0.0000       0.0000     
    187     (1,1519)              3125.5      -3113.4      -12.145       0.0000       0.0000       0.0000       0.0000       0.0000       0.0000       0.0000       0.0000     
    188     (1,1394)              3113.4      -3079.5      -33.817       0.0000       0.0000       0.0000       0.0000       0.0000       0.0000       0.0000       0.0000     
    189     (1,1392)              3079.5      -3017.7      -61.796       0.0000       0.0000       0.0000       0.0000       0.0000       0.0000       0.0000       0.0000     
    190     (1,1266)              3017.7      -3111.2       93.442       0.0000       0.0000       0.0000       0.0000       0.0000       0.0000       0.0000       0.0000     
    191     (1,1264)              3111.2      -3230.1       118.92       0.0000       0.0000       0.0000       0.0000       0.0000       0.0000       0.0000       0.0000     
    192     (1,1261)              3230.1      -3244.8       14.698       0.0000       0.0000       0.0000       0.0000       0.0000       0.0000       0.0000       0.0000     
    193     (1,1153)              3244.8      -3372.0       127.19       0.0000       0.0000       0.0000       0.0000       0.0000       0.0000       0.0000       0.0000     
    194     (1,1151)              3372.0      -3454.1       82.066       0.0000       0.0000       0.0000       0.0000       0.0000       0.0000       0.0000       0.0000     
    195     (1,1150)              3454.1      -3493.7       39.686       0.0000       0.0000       0.0000       0.0000       0.0000       0.0000       0.0000       0.0000     
    196     (1,1063)              3493.7      -3573.6       79.829       0.0000       0.0000       0.0000       0.0000       0.0000       0.0000       0.0000       0.0000     
    197     (1,1061)              3573.6      -3647.1       73.493       0.0000       0.0000       0.0000       0.0000       0.0000       0.0000       0.0000       0.0000     
    198     (1,968)               3647.1      -3667.5       20.417       0.0000       0.0000       0.0000       0.0000       0.0000       0.0000       0.0000       0.0000     
    199     (1,965)               3667.5      -3705.0       37.566       0.0000       0.0000       0.0000       0.0000       0.0000       0.0000       0.0000       0.0000     
    200     (1,963)               3705.0      -3761.9       56.841       0.0000       0.0000       0.0000       0.0000       0.0000       0.0000       0.0000       0.0000     
    201     (1,960)               3761.9      -3833.6       71.744       0.0000       0.0000       0.0000       0.0000       0.0000       0.0000       0.0000       0.0000     
    202     (1,959)               3833.6      -3909.7       76.030       0.0000       0.0000       0.0000       0.0000       0.0000       0.0000       0.0000       0.0000     
    203     (1,878)               3909.7      -3951.8       42.135       0.0000       0.0000       0.0000       0.0000       0.0000       0.0000       0.0000       0.0000     
    204     (1,875)               3951.8      -4012.1       60.325       0.0000       0.0000       0.0000       0.0000       0.0000       0.0000       0.0000       0.0000     
    205     (1,873)               4012.1      -4067.3       55.196       0.0000       0.0000       0.0000       0.0000       0.0000       0.0000       0.0000       0.0000     
    206     (1,872)               4067.3      -4102.4       35.047       0.0000       0.0000       0.0000       0.0000       0.0000       0.0000       0.0000       0.0000     
    207     (1,794)               4102.4      -4160.9       58.565       0.0000       0.0000       0.0000       0.0000       0.0000       0.0000       0.0000       0.0000     
    208     (1,791)               4160.9      -4176.0       15.028       0.0000       0.0000       0.0000       0.0000       0.0000       0.0000       0.0000       0.0000     
    209     (1,789)               4176.0      -4238.4       62.450       0.0000       0.0000       0.0000       0.0000       0.0000       0.0000       0.0000       0.0000     
    210     (1,712)               4238.4      -4239.5       1.0892       0.0000       0.0000       0.0000       0.0000       0.0000       0.0000       0.0000       0.0000     
    211     (1,711)               4239.5      -4284.2       44.673       0.0000       0.0000       0.0000       0.0000       0.0000       0.0000       0.0000       0.0000     
    212     (1,709)               4284.2      -4294.5       10.333       0.0000       0.0000       0.0000       0.0000       0.0000       0.0000       0.0000       0.0000     
    213     (1,706)               4294.5      -4309.7       15.155       0.0000       0.0000       0.0000       0.0000       0.0000       0.0000       0.0000       0.0000     
    214     (1,630)               4309.7      -4353.2       43.519       0.0000       0.0000       0.0000       0.0000       0.0000       0.0000       0.0000       0.0000     
    215     (1,629)               4353.2      -4385.0       31.862       0.0000       0.0000       0.0000       0.0000       0.0000       0.0000       0.0000       0.0000     
    216     (1,627)               4385.0      -4428.2       43.140       0.0000       0.0000       0.0000       0.0000       0.0000       0.0000       0.0000       0.0000     
    217     (1,624)               4428.2      -4438.1       9.9227       0.0000       0.0000       0.0000       0.0000       0.0000       0.0000       0.0000       0.0000     
    218     (1,549)               4438.1      -4445.6       7.4681       0.0000       0.0000       0.0000       0.0000       0.0000       0.0000       0.0000       0.0000     
    219     (1,547)               4445.6      -4528.9       83.348       0.0000       0.0000       0.0000       0.0000       0.0000       0.0000       0.0000       0.0000     
    220     (1,546)               4528.9      -4623.4       94.487       0.0000       0.0000       0.0000       0.0000       0.0000       0.0000       0.0000       0.0000     
    221     (1,543)               4623.4      -4625.0       1.6443       0.0000       0.0000       0.0000       0.0000       0.0000       0.0000       0.0000       0.0000     
    222     (1,469)               4625.0      -4698.6       73.571       0.0000       0.0000       0.0000       0.0000       0.0000       0.0000       0.0000       0.0000     
    223     (1,467)               4698.6      -4769.4       70.761       0.0000       0.0000       0.0000       0.0000       0.0000       0.0000       0.0000       0.0000     
    224     (1,394)               4769.4      -4809.6       40.172       0.0000       0.0000       0.0000       0.0000       0.0000       0.0000       0.0000       0.0000     
    225     (1,393)               4809.6      -4868.7       59.143       0.0000       0.0000       0.0000       0.0000       0.0000       0.0000       0.0000       0.0000     
    226     (1,390)               4868.7      -4911.0       42.267       0.0000       0.0000       0.0000       0.0000       0.0000       0.0000       0.0000       0.0000     
    227     (1,389)               4911.0      -4947.7       36.788       0.0000       0.0000       0.0000       0.0000       0.0000       0.0000       0.0000       0.0000     
    228     (1,387)               4947.7      -4957.7       9.9008       0.0000       0.0000       0.0000       0.0000       0.0000       0.0000       0.0000       0.0000     
    229     (1,384)               4957.7      -4994.5       36.852       0.0000       0.0000       0.0000       0.0000       0.0000       0.0000       0.0000       0.0000     
    230     (1,383)               4994.5      -5004.4       9.9071       0.0000       0.0000       0.0000       0.0000       0.0000       0.0000       0.0000       0.0000     
    231     (1,302)               5004.4      -5028.2       23.782       0.0000       0.0000       0.0000       0.0000       0.0000       0.0000       0.0000       0.0000     
    232     (1,299)               5028.2      -5044.4       16.178       0.0000       0.0000       0.0000       0.0000       0.0000       0.0000       0.0000       0.0000     
    233     (1,297)               5044.4      -5047.9       3.5018       0.0000       0.0000       0.0000       0.0000       0.0000       0.0000       0.0000       0.0000     
    234     (1,296)               5047.9      -5059.3       11.447       0.0000       0.0000       0.0000       0.0000       0.0000       0.0000       0.0000       0.0000     
    235     (1,293)               5059.3      -5056.8      -2.4801       0.0000       0.0000       0.0000       0.0000       0.0000       0.0000       0.0000       0.0000     
    236     (1,292)               5056.8      -5043.8      -13.008       0.0000       0.0000       0.0000       0.0000       0.0000       0.0000       0.0000       0.0000     
    237     (1,289)               5043.8      -5039.0      -4.8796       0.0000       0.0000       0.0000       0.0000       0.0000       0.0000       0.0000       0.0000     
    238     (1,250)               5039.0      -5006.3      -32.625       0.0000       0.0000       0.0000       0.0000       0.0000       0.0000       0.0000       0.0000     
    239     (1,249)               5006.3      -4932.8      -73.560       0.0000       0.0000       0.0000       0.0000       0.0000       0.0000       0.0000       0.0000     
    240     (1,246)               4932.8      -4948.8       16.079       0.0000       0.0000       0.0000       0.0000       0.0000       0.0000       0.0000       0.0000     
    241     (1,244)               4948.8      -4989.0       40.133       0.0000       0.0000       0.0000       0.0000       0.0000       0.0000       0.0000       0.0000     
    242     (1,243)               4989.0      -5132.8       143.80       0.0000       0.0000       0.0000       0.0000       0.0000       0.0000       0.0000       0.0000     
    243     (1,209)               5132.8      -5204.3       71.501       0.0000       0.0000       0.0000       0.0000       0.0000       0.0000       0.0000       0.0000     
    244     (1,206)               5204.3      -5305.6       101.28       0.0000       0.0000       0.0000       0.0000       0.0000       0.0000       0.0000       0.0000     
    245     (1,204)               5305.6      -5361.0       55.406       0.0000       0.0000       0.0000       0.0000       0.0000       0.0000       0.0000       0.0000     
    246     (1,203)               5361.0      -5445.7       84.780       0.0000       0.0000       0.0000       0.0000       0.0000       0.0000       0.0000       0.0000     
    247     (1,171)               5445.7      -5494.8       49.098       0.0000       0.0000       0.0000       0.0000       0.0000       0.0000       0.0000       0.0000     
    248     (1,168)               5494.8      -5583.4       88.543       0.0000       0.0000       0.0000       0.0000       0.0000       0.0000       0.0000       0.0000     
    249     (1,166)               5583.4      -5590.8       7.4171       0.0000       0.0000       0.0000       0.0000       0.0000       0.0000       0.0000       0.0000     
    250     (1,165)               5590.8      -5683.7       92.931       0.0000       0.0000       0.0000       0.0000       0.0000       0.0000       0.0000       0.0000     
    251     (1,135)               5683.7      -5691.0       7.3049       0.0000       0.0000       0.0000       0.0000       0.0000       0.0000       0.0000       0.0000     
    252     (1,132)               5691.0      -5777.2       86.139       0.0000       0.0000       0.0000       0.0000       0.0000       0.0000       0.0000       0.0000     
    253     (1,130)               5777.2      -5784.0       6.8074       0.0000       0.0000       0.0000       0.0000       0.0000       0.0000       0.0000       0.0000     
    254     (1,129)               5784.0      -5865.9       81.936       0.0000       0.0000       0.0000       0.0000       0.0000       0.0000       0.0000       0.0000     
    255     (1,101)               5865.9      -5872.6       6.7135       0.0000       0.0000       0.0000       0.0000       0.0000       0.0000       0.0000       0.0000     
    256     (1,98)                5872.6      -5951.2       78.591       0.0000       0.0000       0.0000       0.0000       0.0000       0.0000       0.0000       0.0000     
    257     (1,96)                5951.2      -5957.6       6.3718       0.0000       0.0000       0.0000       0.0000       0.0000       0.0000       0.0000       0.0000     
    258     (1,95)                5957.6      -6033.2       75.564       0.0000       0.0000       0.0000       0.0000       0.0000       0.0000       0.0000       0.0000     
    259     (1,69)                6033.2      -6039.5       6.3787       0.0000       0.0000       0.0000       0.0000       0.0000       0.0000       0.0000       0.0000     
    260     (1,66)                6039.5      -6111.6       72.047       0.0000       0.0000       0.0000       0.0000       0.0000       0.0000       0.0000       0.0000     
    261     (1,65)                6111.6      -6115.3       3.7252       0.0000       0.0000       0.0000       0.0000       0.0000       0.0000       0.0000       0.0000     
    262     (1,63)                6115.3      -6183.2       67.859       0.0000       0.0000       0.0000       0.0000       0.0000       0.0000       0.0000       0.0000     
    263     (1,60)                6183.2      -6200.8       17.592       0.0000       0.0000       0.0000       0.0000       0.0000       0.0000       0.0000       0.0000     
    264     (1,36)                6200.8      -6321.8       121.08       0.0000       0.0000       0.0000       0.0000       0.0000       0.0000       0.0000       0.0000     
    265     (1,35)                6321.8      -6373.5       51.636       0.0000       0.0000       0.0000       0.0000       0.0000       0.0000       0.0000       0.0000     
    266     (1,33)                6373.5      -6471.8       98.304       0.0000       0.0000       0.0000       0.0000       0.0000       0.0000       0.0000       0.0000     
    267     (1,30)                6471.8      -6565.6       93.768       0.0000       0.0000       0.0000       0.0000       0.0000       0.0000       0.0000       0.0000     
    268     (1,8)                 6565.6      -6676.0       110.44       0.0000       0.0000       0.0000       0.0000       0.0000       0.0000       0.0000       0.0000     
    269     (1,7)                 6676.0      -6807.3       131.27       0.0000       0.0000       0.0000       0.0000       0.0000       0.0000       0.0000       0.0000     
    270     (1,5)                 6807.3       0.0000       22.766       0.0000       0.0000       0.0000       0.0000      -6830.0       0.0000       0.0000       0.0000     
 ------------------------------------------------------------------------------------------------------------------------------------------------------------------------------




  SFR BUDGET FOR ENTIRE MODEL AT END OF TIME STEP    1, STRESS PERIOD   1
  ------------------------------------------------------------------------------

     CUMULATIVE SFR      L**3       RATES FOR THIS TIME STEP      L**3/T
     ------------------                 ------------------------

           IN:                                      IN:
           ---                                      ---
                 GWF =        7320.4253                   GWF =        7320.4253
            RAINFALL =           0.0000              RAINFALL =           0.0000
         EVAPORATION =           0.0000           EVAPORATION =           0.0000
              RUNOFF =           0.0000                RUNOFF =           0.0000
          EXT-INFLOW =           0.0000            EXT-INFLOW =           0.0000
         EXT-OUTFLOW =           0.0000           EXT-OUTFLOW =           0.0000
             STORAGE =           0.0000               STORAGE =           0.0000

            TOTAL IN =        7320.4253              TOTAL IN =        7320.4253

          OUT:                                     OUT:
          ----                                     ----
                 GWF =         490.3951                   GWF =         490.3951
            RAINFALL =           0.0000              RAINFALL =           0.0000
         EVAPORATION =           0.0000           EVAPORATION =           0.0000
              RUNOFF =           0.0000                RUNOFF =           0.0000
          EXT-INFLOW =           0.0000            EXT-INFLOW =           0.0000
         EXT-OUTFLOW =        6830.0302           EXT-OUTFLOW =        6830.0302
             STORAGE =           0.0000               STORAGE =           0.0000

           TOTAL OUT =        7320.4253             TOTAL OUT =        7320.4253

            IN - OUT =           0.0000              IN - OUT =           0.0000

 PERCENT DISCREPANCY =           0.00     PERCENT DISCREPANCY =           0.00



  VOLUME BUDGET FOR ENTIRE MODEL AT END OF TIME STEP    1, STRESS PERIOD   1
  ---------------------------------------------------------------------------------------------------

     CUMULATIVE VOLUME      L**3       RATES FOR THIS TIME STEP      L**3/T          PACKAGE NAME    
     ------------------                 ------------------------                     ----------------

           IN:                                      IN:
           ---                                      ---
              STO-SS =           0.0000                STO-SS =           0.0000     STORAGE         
              STO-SY =           0.0000                STO-SY =           0.0000     STORAGE         
                 GHB =        9110.7399                   GHB =        9110.7399     GHB             
                 RCH =         140.1369                   RCH =         140.1369     RCH             
                 SFR =         490.3933                   SFR =         490.3933     SFR             

            TOTAL IN =        9741.2700              TOTAL IN =        9741.2700

          OUT:                                     OUT:
          ----                                     ----
              STO-SS =           0.0000                STO-SS =           0.0000     STORAGE         
              STO-SY =           0.0000                STO-SY =           0.0000     STORAGE         
                 GHB =        2420.7591                   GHB =        2420.7591     GHB             
                 RCH =           0.0000                   RCH =           0.0000     RCH             
                 SFR =        7320.4368                   SFR =        7320.4368     SFR             

           TOTAL OUT =        9741.1959             TOTAL OUT =        9741.1959

            IN - OUT =       7.4092E-02              IN - OUT =       7.4092E-02

 PERCENT DISCREPANCY =           0.00     PERCENT DISCREPANCY =           0.00




         TIME SUMMARY AT END OF TIME STEP    1 IN STRESS PERIOD    1
                    SECONDS     MINUTES      HOURS       DAYS        YEARS
                    -----------------------------------------------------------
   TIME STEP LENGTH  86400.      1440.0      24.000      1.0000     2.73785E-03
 STRESS PERIOD TIME  86400.      1440.0      24.000      1.0000     2.73785E-03
         TOTAL TIME  86400.      1440.0      24.000      1.0000     2.73785E-03


end timestep


start timestep kper="2" kstp="1" mode="normal"


 END OF FILE DETECTED IN OUTPUT CONTROL.
 CURRENT OUTPUT CONTROL SETTINGS WILL BE 
 REPEATED UNTIL THE END OF THE SIMULATION.

 OUTPUT CONTROL FOR STRESS PERIOD 2 IS REPEATED USING SETTINGS FROM A PREVIOUS STRESS PERIOD.


 PROCESSING STORAGE PERIOD DATA
 END PROCESSING STORAGE PERIOD DATA


 STRESS PERIOD 2 IS TRANSIENT


 REUSING GHBS FROM LAST STRESS PERIOD
 -------------------------------------------
  RCH NO.    LAYER  CELL2D      RECHARGE    
 -------------------------------------------
     1         1       7     5.479452050E-04
     2         1       8     5.479452050E-04
     3         1      24     5.479452050E-04
     4         1      25     5.479452050E-04
     5         1      26     5.479452050E-04
     6         1      27     5.479452050E-04
     7         1      28     5.479452050E-04
     8         1      29     5.479452050E-04
     9         1      30     5.479452050E-04
     10        1      31     5.479452050E-04
     11        1      32     5.479452050E-04
     12        1      33     5.479452050E-04
     13        1      34     5.479452050E-04
     14        1      35     5.479452050E-04
     15        1      36     5.479452050E-04
     16        1      37     5.479452050E-04
     17        1      38     5.479452050E-04
     18        1      39     5.479452050E-04
     19        1      40     5.479452050E-04
     20        1      41     5.479452050E-04
     21        1      42     5.479452050E-04
     22        1      43     5.479452050E-04
     23        1      44     5.479452050E-04
     24        1      45     5.479452050E-04
     25        1      46     5.479452050E-04
     26        1      47     5.479452050E-04
     27        1      48     5.479452050E-04
     28        1      49     5.479452050E-04
     29        1      50     5.479452050E-04
     30        1      53     5.479452050E-04
     31        1      54     5.479452050E-04
     32        1      55     5.479452050E-04
     33        1      56     5.479452050E-04
     34        1      57     5.479452050E-04
     35        1      58     5.479452050E-04
     36        1      59     5.479452050E-04
     37        1      60     5.479452050E-04
     38        1      61     5.479452050E-04
     39        1      62     5.479452050E-04
     40        1      63     5.479452050E-04
     41        1      64     5.479452050E-04
     42        1      65     5.479452050E-04
     43        1      66     5.479452050E-04
     44        1      67     5.479452050E-04
     45        1      68     5.479452050E-04
     46        1      69     5.479452050E-04
     47        1      70     5.479452050E-04
     48        1      71     5.479452050E-04
     49        1      72     5.479452050E-04
     50        1      73     5.479452050E-04
     51        1      74     5.479452050E-04
     52        1      75     5.479452050E-04
     53        1      76     5.479452050E-04
     54        1      77     5.479452050E-04
     55        1      78     5.479452050E-04
     56        1      79     5.479452050E-04
     57        1      80     5.479452050E-04
     58        1      81     5.479452050E-04
     59        1      82     5.479452050E-04
     60        1      83     5.479452050E-04
     61        1      86     5.479452050E-04
     62        1      87     5.479452050E-04
     63        1      88     5.479452050E-04
     64        1      89     5.479452050E-04
     65        1      90     5.479452050E-04
     66        1      91     5.479452050E-04
     67        1      92     5.479452050E-04
     68        1      93     5.479452050E-04
     69        1      94     5.479452050E-04
     70        1      95     5.479452050E-04
     71        1      96     5.479452050E-04
     72        1      97     5.479452050E-04
     73        1      98     5.479452050E-04
     74        1      99     5.479452050E-04
     75        1      100    5.479452050E-04
     76        1      101    5.479452050E-04
     77        1      102    5.479452050E-04
     78        1      103    5.479452050E-04
     79        1      104    5.479452050E-04
     80        1      105    5.479452050E-04
     81        1      106    5.479452050E-04
     82        1      107    5.479452050E-04
     83        1      108    5.479452050E-04
     84        1      109    5.479452050E-04
     85        1      110    5.479452050E-04
     86        1      111    5.479452050E-04
     87        1      112    5.479452050E-04
     88        1      113    5.479452050E-04
     89        1      114    5.479452050E-04
     90        1      115    5.479452050E-04
     91        1      118    5.479452050E-04
     92        1      119    5.479452050E-04
     93        1      120    5.479452050E-04
     94        1      121    5.479452050E-04
     95        1      122    5.479452050E-04
     96        1      123    5.479452050E-04
     97        1      124    5.479452050E-04
     98        1      125    5.479452050E-04
     99        1      126    5.479452050E-04
    100        1      127    5.479452050E-04
    101        1      128    5.479452050E-04
    102        1      129    5.479452050E-04
    103        1      130    5.479452050E-04
    104        1      131    5.479452050E-04
    105        1      132    5.479452050E-04
    106        1      133    5.479452050E-04
    107        1      134    5.479452050E-04
    108        1      135    5.479452050E-04
    109        1      136    5.479452050E-04
    110        1      137    5.479452050E-04
    111        1      138    5.479452050E-04
    112        1      139    5.479452050E-04
    113        1      140    5.479452050E-04
    114        1      141    5.479452050E-04
    115        1      142    5.479452050E-04
    116        1      143    5.479452050E-04
    117        1      144    5.479452050E-04
    118        1      145    5.479452050E-04
    119        1      146    5.479452050E-04
    120        1      147    5.479452050E-04
    121        1      148    5.479452050E-04
    122        1      149    5.479452050E-04
    123        1      152    5.479452050E-04
    124        1      153    5.479452050E-04
    125        1      154    5.479452050E-04
    126        1      155    5.479452050E-04
    127        1      156    5.479452050E-04
    128        1      157    5.479452050E-04
    129        1      158    5.479452050E-04
    130        1      159    5.479452050E-04
    131        1      160    5.479452050E-04
    132        1      161    5.479452050E-04
    133        1      162    5.479452050E-04
    134        1      163    5.479452050E-04
    135        1      164    5.479452050E-04
    136        1      165    5.479452050E-04
    137        1      166    5.479452050E-04
    138        1      167    5.479452050E-04
    139        1      168    5.479452050E-04
    140        1      169    5.479452050E-04
    141        1      170    5.479452050E-04
    142        1      171    5.479452050E-04
    143        1      172    5.479452050E-04
    144        1      173    5.479452050E-04
    145        1      174    5.479452050E-04
    146        1      175    5.479452050E-04
    147        1      176    5.479452050E-04
    148        1      177    5.479452050E-04
    149        1      178    5.479452050E-04
    150        1      179    5.479452050E-04
    151        1      180    5.479452050E-04
    152        1      181    5.479452050E-04
    153        1      182    5.479452050E-04
    154        1      183    5.479452050E-04
    155        1      184    5.479452050E-04
    156        1      185    5.479452050E-04
    157        1      188    5.479452050E-04
    158        1      189    5.479452050E-04
    159        1      190    5.479452050E-04
    160        1      191    5.479452050E-04
    161        1      192    5.479452050E-04
    162        1      193    5.479452050E-04
    163        1      194    5.479452050E-04
    164        1      195    5.479452050E-04
    165        1      196    5.479452050E-04
    166        1      197    5.479452050E-04
    167        1      198    5.479452050E-04
    168        1      199    5.479452050E-04
    169        1      200    5.479452050E-04
    170        1      201    5.479452050E-04
    171        1      202    5.479452050E-04
    172        1      203    5.479452050E-04
    173        1      204    5.479452050E-04
    174        1      205    5.479452050E-04
    175        1      206    5.479452050E-04
    176        1      207    5.479452050E-04
    177        1      208    5.479452050E-04
    178        1      209    5.479452050E-04
    179        1      210    5.479452050E-04
    180        1      211    5.479452050E-04
    181        1      212    5.479452050E-04
    182        1      213    5.479452050E-04
    183        1      214    5.479452050E-04
    184        1      215    5.479452050E-04
    185        1      216    5.479452050E-04
    186        1      217    5.479452050E-04
    187        1      218    5.479452050E-04
    188        1      219    5.479452050E-04
    189        1      220    5.479452050E-04
    190        1      221    5.479452050E-04
    191        1      222    5.479452050E-04
    192        1      223    5.479452050E-04
    193        1      225    5.479452050E-04
    194        1      226    5.479452050E-04
    195        1      227    5.479452050E-04
    196        1      228    5.479452050E-04
    197        1      229    5.479452050E-04
    198        1      230    5.479452050E-04
    199        1      231    5.479452050E-04
    200        1      232    5.479452050E-04
    201        1      233    5.479452050E-04
    202        1      234    5.479452050E-04
    203        1      235    5.479452050E-04
    204        1      236    5.479452050E-04
    205        1      237    5.479452050E-04
    206        1      238    5.479452050E-04
    207        1      239    5.479452050E-04
    208        1      240    5.479452050E-04
    209        1      241    5.479452050E-04
    210        1      242    5.479452050E-04
    211        1      243    5.479452050E-04
    212        1      244    5.479452050E-04
    213        1      245    5.479452050E-04
    214        1      246    5.479452050E-04
    215        1      247    5.479452050E-04
    216        1      248    5.479452050E-04
    217        1      249    5.479452050E-04
    218        1      250    5.479452050E-04
    219        1      251    5.479452050E-04
    220        1      252    5.479452050E-04
    221        1      253    5.479452050E-04
    222        1      254    5.479452050E-04
    223        1      255    5.479452050E-04
    224        1      256    5.479452050E-04
    225        1      257    5.479452050E-04
    226        1      258    5.479452050E-04
    227        1      259    5.479452050E-04
    228        1      260    5.479452050E-04
    229        1      261    5.479452050E-04
    230        1      262    5.479452050E-04
    231        1      263    5.479452050E-04
    232        1      266    5.479452050E-04
    233        1      267    5.479452050E-04
    234        1      268    5.479452050E-04
    235        1      269    5.479452050E-04
    236        1      270    5.479452050E-04
    237        1      271    5.479452050E-04
    238        1      272    5.479452050E-04
    239        1      273    5.479452050E-04
    240        1      274    5.479452050E-04
    241        1      275    5.479452050E-04
    242        1      276    5.479452050E-04
    243        1      277    5.479452050E-04
    244        1      278    5.479452050E-04
    245        1      279    5.479452050E-04
    246        1      280    5.479452050E-04
    247        1      281    5.479452050E-04
    248        1      282    5.479452050E-04
    249        1      283    5.479452050E-04
    250        1      284    5.479452050E-04
    251        1      285    5.479452050E-04
    252        1      286    5.479452050E-04
    253        1      287    5.479452050E-04
    254        1      288    5.479452050E-04
    255        1      289    5.479452050E-04
    256        1      290    5.479452050E-04
    257        1      291    5.479452050E-04
    258        1      292    5.479452050E-04
    259        1      293    5.479452050E-04
    260        1      294    5.479452050E-04
    261        1      295    5.479452050E-04
    262        1      296    5.479452050E-04
    263        1      297    5.479452050E-04
    264        1      298    5.479452050E-04
    265        1      299    5.479452050E-04
    266        1      300    5.479452050E-04
    267        1      301    5.479452050E-04
    268        1      302    5.479452050E-04
    269        1      303    5.479452050E-04
    270        1      304    5.479452050E-04
    271        1      305    5.479452050E-04
    272        1      306    5.479452050E-04
    273        1      307    5.479452050E-04
    274        1      308    5.479452050E-04
    275        1      309    5.479452050E-04
    276        1      310    5.479452050E-04
    277        1      311    5.479452050E-04
    278        1      312    5.479452050E-04
    279        1      313    5.479452050E-04
    280        1      314    5.479452050E-04
    281        1      352    5.479452050E-04
    282        1      353    5.479452050E-04
    283        1      354    5.479452050E-04
    284        1      355    5.479452050E-04
    285        1      356    5.479452050E-04
    286        1      357    5.479452050E-04
    287        1      358    5.479452050E-04
    288        1      359    5.479452050E-04
    289        1      360    5.479452050E-04
    290        1      361    5.479452050E-04
    291        1      362    5.479452050E-04
    292        1      363    5.479452050E-04
    293        1      364    5.479452050E-04
    294        1      365    5.479452050E-04
    295        1      366    5.479452050E-04
    296        1      367    5.479452050E-04
    297        1      368    5.479452050E-04
    298        1      369    5.479452050E-04
    299        1      370    5.479452050E-04
    300        1      371    5.479452050E-04
    301        1      372    5.479452050E-04
    302        1      373    5.479452050E-04
    303        1      374    5.479452050E-04
    304        1      375    5.479452050E-04
    305        1      376    5.479452050E-04
    306        1      377    5.479452050E-04
    307        1      378    5.479452050E-04
    308        1      379    5.479452050E-04
    309        1      380    5.479452050E-04
    310        1      381    5.479452050E-04
    311        1      382    5.479452050E-04
    312        1      383    5.479452050E-04
    313        1      384    5.479452050E-04
    314        1      385    5.479452050E-04
    315        1      386    5.479452050E-04
    316        1      387    5.479452050E-04
    317        1      388    5.479452050E-04
    318        1      389    5.479452050E-04
    319        1      390    5.479452050E-04
    320        1      391    5.479452050E-04
    321        1      392    5.479452050E-04
    322        1      393    5.479452050E-04
    323        1      394    5.479452050E-04
    324        1      395    5.479452050E-04
    325        1      396    5.479452050E-04
    326        1      397    5.479452050E-04
    327        1      398    5.479452050E-04
    328        1      399    5.479452050E-04
    329        1      400    5.479452050E-04
    330        1      401    5.479452050E-04
    331        1      402    5.479452050E-04
    332        1      403    5.479452050E-04
    333        1      404    5.479452050E-04
    334        1      405    5.479452050E-04
    335        1      406    5.479452050E-04
    336        1      407    5.479452050E-04
    337        1      408    5.479452050E-04
    338        1      409    5.479452050E-04
    339        1      410    5.479452050E-04
    340        1      411    5.479452050E-04
    341        1      412    5.479452050E-04
    342        1      413    5.479452050E-04
    343        1      414    5.479452050E-04
    344        1      415    5.479452050E-04
    345        1      416    5.479452050E-04
    346        1      417    5.479452050E-04
    347        1      418    5.479452050E-04
    348        1      419    5.479452050E-04
    349        1      420    5.479452050E-04
    350        1      421    5.479452050E-04
    351        1      422    5.479452050E-04
    352        1      423    5.479452050E-04
    353        1      424    5.479452050E-04
    354        1      425    5.479452050E-04
    355        1      426    5.479452050E-04
    356        1      427    5.479452050E-04
    357        1      428    5.479452050E-04
    358        1      429    5.479452050E-04
    359        1      430    5.479452050E-04
    360        1      431    5.479452050E-04
    361        1      432    5.479452050E-04
    362        1      433    5.479452050E-04
    363        1      434    5.479452050E-04
    364        1      435    5.479452050E-04
    365        1      436    5.479452050E-04
    366        1      437    5.479452050E-04
    367        1      438    5.479452050E-04
    368        1      439    5.479452050E-04
    369        1      442    5.479452050E-04
    370        1      443    5.479452050E-04
    371        1      444    5.479452050E-04
    372        1      445    5.479452050E-04
    373        1      446    5.479452050E-04
    374        1      447    5.479452050E-04
    375        1      448    5.479452050E-04
    376        1      449    5.479452050E-04
    377        1      450    5.479452050E-04
    378        1      451    5.479452050E-04
    379        1      452    5.479452050E-04
    380        1      453    5.479452050E-04
    381        1      454    5.479452050E-04
    382        1      455    5.479452050E-04
    383        1      456    5.479452050E-04
    384        1      457    5.479452050E-04
    385        1      458    5.479452050E-04
    386        1      459    5.479452050E-04
    387        1      460    5.479452050E-04
    388        1      461    5.479452050E-04
    389        1      462    5.479452050E-04
    390        1      463    5.479452050E-04
    391        1      464    5.479452050E-04
    392        1      465    5.479452050E-04
    393        1      466    5.479452050E-04
    394        1      467    5.479452050E-04
    395        1      468    5.479452050E-04
    396        1      469    5.479452050E-04
    397        1      470    5.479452050E-04
    398        1      471    5.479452050E-04
    399        1      472    5.479452050E-04
    400        1      473    5.479452050E-04
    401        1      474    5.479452050E-04
    402        1      475    5.479452050E-04
    403        1      476    5.479452050E-04
    404        1      477    5.479452050E-04
    405        1      478    5.479452050E-04
    406        1      479    5.479452050E-04
    407        1      480    5.479452050E-04
    408        1      481    5.479452050E-04
    409        1      482    5.479452050E-04
    410        1      483    5.479452050E-04
    411        1      484    5.479452050E-04
    412        1      485    5.479452050E-04
    413        1      486    5.479452050E-04
    414        1      487    5.479452050E-04
    415        1      488    5.479452050E-04
    416        1      489    5.479452050E-04
    417        1      490    5.479452050E-04
    418        1      491    5.479452050E-04
    419        1      492    5.479452050E-04
    420        1      493    5.479452050E-04
    421        1      494    5.479452050E-04
    422        1      495    5.479452050E-04
    423        1      496    5.479452050E-04
    424        1      497    5.479452050E-04
    425        1      498    5.479452050E-04
    426        1      499    5.479452050E-04
    427        1      500    5.479452050E-04
    428        1      501    5.479452050E-04
    429        1      502    5.479452050E-04
    430        1      503    5.479452050E-04
    431        1      504    5.479452050E-04
    432        1      505    5.479452050E-04
    433        1      506    5.479452050E-04
    434        1      507    5.479452050E-04
    435        1      508    5.479452050E-04
    436        1      509    5.479452050E-04
    437        1      510    5.479452050E-04
    438        1      511    5.479452050E-04
    439        1      512    5.479452050E-04
    440        1      513    5.479452050E-04
    441        1      514    5.479452050E-04
    442        1      515    5.479452050E-04
    443        1      518    5.479452050E-04
    444        1      519    5.479452050E-04
    445        1      520    5.479452050E-04
    446        1      521    5.479452050E-04
    447        1      522    5.479452050E-04
    448        1      523    5.479452050E-04
    449        1      524    5.479452050E-04
    450        1      525    5.479452050E-04
    451        1      526    5.479452050E-04
    452        1      527    5.479452050E-04
    453        1      528    5.479452050E-04
    454        1      529    5.479452050E-04
    455        1      530    5.479452050E-04
    456        1      531    5.479452050E-04
    457        1      532    5.479452050E-04
    458        1      533    5.479452050E-04
    459        1      534    5.479452050E-04
    460        1      535    5.479452050E-04
    461        1      536    5.479452050E-04
    462        1      537    5.479452050E-04
    463        1      538    5.479452050E-04
    464        1      539    5.479452050E-04
    465        1      540    5.479452050E-04
    466        1      541    5.479452050E-04
    467        1      542    5.479452050E-04
    468        1      543    5.479452050E-04
    469        1      544    5.479452050E-04
    470        1      545    5.479452050E-04
    471        1      546    5.479452050E-04
    472        1      547    5.479452050E-04
    473        1      548    5.479452050E-04
    474        1      549    5.479452050E-04
    475        1      550    5.479452050E-04
    476        1      551    5.479452050E-04
    477        1      552    5.479452050E-04
    478        1      553    5.479452050E-04
    479        1      554    5.479452050E-04
    480        1      555    5.479452050E-04
    481        1      556    5.479452050E-04
    482        1      557    5.479452050E-04
    483        1      558    5.479452050E-04
    484        1      559    5.479452050E-04
    485        1      560    5.479452050E-04
    486        1      561    5.479452050E-04
    487        1      562    5.479452050E-04
    488        1      563    5.479452050E-04
    489        1      564    5.479452050E-04
    490        1      565    5.479452050E-04
    491        1      566    5.479452050E-04
    492        1      567    5.479452050E-04
    493        1      568    5.479452050E-04
    494        1      569    5.479452050E-04
    495        1      570    5.479452050E-04
    496        1      571    5.479452050E-04
    497        1      572    5.479452050E-04
    498        1      573    5.479452050E-04
    499        1      574    5.479452050E-04
    500        1      575    5.479452050E-04
    501        1      576    5.479452050E-04
    502        1      577    5.479452050E-04
    503        1      578    5.479452050E-04
    504        1      579    5.479452050E-04
    505        1      580    5.479452050E-04
    506        1      581    5.479452050E-04
    507        1      582    5.479452050E-04
    508        1      583    5.479452050E-04
    509        1      584    5.479452050E-04
    510        1      585    5.479452050E-04
    511        1      586    5.479452050E-04
    512        1      587    5.479452050E-04
    513        1      588    5.479452050E-04
    514        1      589    5.479452050E-04
    515        1      590    5.479452050E-04
    516        1      591    5.479452050E-04
    517        1      592    5.479452050E-04
    518        1      593    5.479452050E-04
    519        1      594    5.479452050E-04
    520        1      595    5.479452050E-04
    521        1      598    5.479452050E-04
    522        1      599    5.479452050E-04
    523        1      600    5.479452050E-04
    524        1      601    5.479452050E-04
    525        1      602    5.479452050E-04
    526        1      603    5.479452050E-04
    527        1      604    5.479452050E-04
    528        1      605    5.479452050E-04
    529        1      606    5.479452050E-04
    530        1      607    5.479452050E-04
    531        1      608    5.479452050E-04
    532        1      609    5.479452050E-04
    533        1      610    5.479452050E-04
    534        1      611    5.479452050E-04
    535        1      612    5.479452050E-04
    536        1      613    5.479452050E-04
    537        1      614    5.479452050E-04
    538        1      615    5.479452050E-04
    539        1      616    5.479452050E-04
    540        1      617    5.479452050E-04
    541        1      618    5.479452050E-04
    542        1      619    5.479452050E-04
    543        1      620    5.479452050E-04
    544        1      621    5.479452050E-04
    545        1      622    5.479452050E-04
    546        1      623    5.479452050E-04
    547        1      624    5.479452050E-04
    548        1      625    5.479452050E-04
    549        1      626    5.479452050E-04
    550        1      627    5.479452050E-04
    551        1      628    5.479452050E-04
    552        1      629    5.479452050E-04
    553        1      630    5.479452050E-04
    554        1      631    5.479452050E-04
    555        1      632    5.479452050E-04
    556        1      633    5.479452050E-04
    557        1      634    5.479452050E-04
    558        1      635    5.479452050E-04
    559        1      636    5.479452050E-04
    560        1      637    5.479452050E-04
    561        1      638    5.479452050E-04
    562        1      639    5.479452050E-04
    563        1      640    5.479452050E-04
    564        1      641    5.479452050E-04
    565        1      642    5.479452050E-04
    566        1      643    5.479452050E-04
    567        1      644    5.479452050E-04
    568        1      645    5.479452050E-04
    569        1      646    5.479452050E-04
    570        1      647    5.479452050E-04
    571        1      648    5.479452050E-04
    572        1      649    5.479452050E-04
    573        1      650    5.479452050E-04
    574        1      651    5.479452050E-04
    575        1      652    5.479452050E-04
    576        1      653    5.479452050E-04
    577        1      654    5.479452050E-04
    578        1      655    5.479452050E-04
    579        1      656    5.479452050E-04
    580        1      657    5.479452050E-04
    581        1      658    5.479452050E-04
    582        1      659    5.479452050E-04
    583        1      660    5.479452050E-04
    584        1      661    5.479452050E-04
    585        1      662    5.479452050E-04
    586        1      663    5.479452050E-04
    587        1      664    5.479452050E-04
    588        1      665    5.479452050E-04
    589        1      666    5.479452050E-04
    590        1      667    5.479452050E-04
    591        1      668    5.479452050E-04
    592        1      669    5.479452050E-04
    593        1      670    5.479452050E-04
    594        1      671    5.479452050E-04
    595        1      672    5.479452050E-04
    596        1      673    5.479452050E-04
    597        1      674    5.479452050E-04
    598        1      675    5.479452050E-04
    599        1      676    5.479452050E-04
    600        1      679    5.479452050E-04
    601        1      680    5.479452050E-04
    602        1      681    5.479452050E-04
    603        1      682    5.479452050E-04
    604        1      683    5.479452050E-04
    605        1      684    5.479452050E-04
    606        1      685    5.479452050E-04
    607        1      686    5.479452050E-04
    608        1      687    5.479452050E-04
    609        1      688    5.479452050E-04
    610        1      689    5.479452050E-04
    611        1      690    5.479452050E-04
    612        1      691    5.479452050E-04
    613        1      692    5.479452050E-04
    614        1      693    5.479452050E-04
    615        1      694    5.479452050E-04
    616        1      695    5.479452050E-04
    617        1      696    5.479452050E-04
    618        1      697    5.479452050E-04
    619        1      698    5.479452050E-04
    620        1      699    5.479452050E-04
    621        1      700    5.479452050E-04
    622        1      701    5.479452050E-04
    623        1      702    5.479452050E-04
    624        1      703    5.479452050E-04
    625        1      704    5.479452050E-04
    626        1      705    5.479452050E-04
    627        1      706    5.479452050E-04
    628        1      707    5.479452050E-04
    629        1      708    5.479452050E-04
    630        1      709    5.479452050E-04
    631        1      710    5.479452050E-04
    632        1      711    5.479452050E-04
    633        1      712    5.479452050E-04
    634        1      713    5.479452050E-04
    635        1      714    5.479452050E-04
    636        1      715    5.479452050E-04
    637        1      716    5.479452050E-04
    638        1      717    5.479452050E-04
    639        1      718    5.479452050E-04
    640        1      719    5.479452050E-04
    641        1      720    5.479452050E-04
    642        1      721    5.479452050E-04
    643        1      722    5.479452050E-04
    644        1      723    5.479452050E-04
    645        1      724    5.479452050E-04
    646        1      725    5.479452050E-04
    647        1      726    5.479452050E-04
    648        1      727    5.479452050E-04
    649        1      728    5.479452050E-04
    650        1      729    5.479452050E-04
    651        1      730    5.479452050E-04
    652        1      731    5.479452050E-04
    653        1      732    5.479452050E-04
    654        1      733    5.479452050E-04
    655        1      734    5.479452050E-04
    656        1      735    5.479452050E-04
    657        1      736    5.479452050E-04
    658        1      737    5.479452050E-04
    659        1      738    5.479452050E-04
    660        1      739    5.479452050E-04
    661        1      740    5.479452050E-04
    662        1      741    5.479452050E-04
    663        1      742    5.479452050E-04
    664        1      743    5.479452050E-04
    665        1      744    5.479452050E-04
    666        1      745    5.479452050E-04
    667        1      746    5.479452050E-04
    668        1      747    5.479452050E-04
    669        1      748    5.479452050E-04
    670        1      749    5.479452050E-04
    671        1      750    5.479452050E-04
    672        1      751    5.479452050E-04
    673        1      752    5.479452050E-04
    674        1      753    5.479452050E-04
    675        1      754    5.479452050E-04
    676        1      755    5.479452050E-04
    677        1      756    5.479452050E-04
    678        1      757    5.479452050E-04
    679        1      758    5.479452050E-04
    680        1      761    5.479452050E-04
    681        1      762    5.479452050E-04
    682        1      763    5.479452050E-04
    683        1      764    5.479452050E-04
    684        1      765    5.479452050E-04
    685        1      766    5.479452050E-04
    686        1      767    5.479452050E-04
    687        1      768    5.479452050E-04
    688        1      769    5.479452050E-04
    689        1      770    5.479452050E-04
    690        1      771    5.479452050E-04
    691        1      772    5.479452050E-04
    692        1      773    5.479452050E-04
    693        1      774    5.479452050E-04
    694        1      775    5.479452050E-04
    695        1      776    5.479452050E-04
    696        1      777    5.479452050E-04
    697        1      778    5.479452050E-04
    698        1      779    5.479452050E-04
    699        1      780    5.479452050E-04
    700        1      781    5.479452050E-04
    701        1      782    5.479452050E-04
    702        1      783    5.479452050E-04
    703        1      784    5.479452050E-04
    704        1      785    5.479452050E-04
    705        1      786    5.479452050E-04
    706        1      787    5.479452050E-04
    707        1      788    5.479452050E-04
    708        1      789    5.479452050E-04
    709        1      790    5.479452050E-04
    710        1      791    5.479452050E-04
    711        1      792    5.479452050E-04
    712        1      793    5.479452050E-04
    713        1      794    5.479452050E-04
    714        1      795    5.479452050E-04
    715        1      796    5.479452050E-04
    716        1      797    5.479452050E-04
    717        1      798    5.479452050E-04
    718        1      799    5.479452050E-04
    719        1      800    5.479452050E-04
    720        1      801    5.479452050E-04
    721        1      802    5.479452050E-04
    722        1      803    5.479452050E-04
    723        1      804    5.479452050E-04
    724        1      805    5.479452050E-04
    725        1      806    5.479452050E-04
    726        1      807    5.479452050E-04
    727        1      808    5.479452050E-04
    728        1      809    5.479452050E-04
    729        1      810    5.479452050E-04
    730        1      811    5.479452050E-04
    731        1      812    5.479452050E-04
    732        1      813    5.479452050E-04
    733        1      814    5.479452050E-04
    734        1      815    5.479452050E-04
    735        1      816    5.479452050E-04
    736        1      817    5.479452050E-04
    737        1      818    5.479452050E-04
    738        1      819    5.479452050E-04
    739        1      820    5.479452050E-04
    740        1      821    5.479452050E-04
    741        1      822    5.479452050E-04
    742        1      823    5.479452050E-04
    743        1      824    5.479452050E-04
    744        1      825    5.479452050E-04
    745        1      826    5.479452050E-04
    746        1      827    5.479452050E-04
    747        1      828    5.479452050E-04
    748        1      829    5.479452050E-04
    749        1      830    5.479452050E-04
    750        1      831    5.479452050E-04
    751        1      832    5.479452050E-04
    752        1      833    5.479452050E-04
    753        1      834    5.479452050E-04
    754        1      835    5.479452050E-04
    755        1      836    5.479452050E-04
    756        1      837    5.479452050E-04
    757        1      838    5.479452050E-04
    758        1      839    5.479452050E-04
    759        1      840    5.479452050E-04
    760        1      841    5.479452050E-04
    761        1      844    5.479452050E-04
    762        1      845    5.479452050E-04
    763        1      846    5.479452050E-04
    764        1      847    5.479452050E-04
    765        1      848    5.479452050E-04
    766        1      849    5.479452050E-04
    767        1      850    5.479452050E-04
    768        1      851    5.479452050E-04
    769        1      852    5.479452050E-04
    770        1      853    5.479452050E-04
    771        1      854    5.479452050E-04
    772        1      855    5.479452050E-04
    773        1      856    5.479452050E-04
    774        1      857    5.479452050E-04
    775        1      858    5.479452050E-04
    776        1      859    5.479452050E-04
    777        1      860    5.479452050E-04
    778        1      861    5.479452050E-04
    779        1      862    5.479452050E-04
    780        1      863    5.479452050E-04
    781        1      864    5.479452050E-04
    782        1      865    5.479452050E-04
    783        1      866    5.479452050E-04
    784        1      867    5.479452050E-04
    785        1      868    5.479452050E-04
    786        1      869    5.479452050E-04
    787        1      870    5.479452050E-04
    788        1      871    5.479452050E-04
    789        1      872    5.479452050E-04
    790        1      873    5.479452050E-04
    791        1      874    5.479452050E-04
    792        1      875    5.479452050E-04
    793        1      876    5.479452050E-04
    794        1      877    5.479452050E-04
    795        1      878    5.479452050E-04
    796        1      879    5.479452050E-04
    797        1      880    5.479452050E-04
    798        1      881    5.479452050E-04
    799        1      882    5.479452050E-04
    800        1      883    5.479452050E-04
    801        1      884    5.479452050E-04
    802        1      885    5.479452050E-04
    803        1      886    5.479452050E-04
    804        1      887    5.479452050E-04
    805        1      888    5.479452050E-04
    806        1      889    5.479452050E-04
    807        1      890    5.479452050E-04
    808        1      891    5.479452050E-04
    809        1      892    5.479452050E-04
    810        1      893    5.479452050E-04
    811        1      894    5.479452050E-04
    812        1      895    5.479452050E-04
    813        1      896    5.479452050E-04
    814        1      897    5.479452050E-04
    815        1      898    5.479452050E-04
    816        1      899    5.479452050E-04
    817        1      900    5.479452050E-04
    818        1      901    5.479452050E-04
    819        1      902    5.479452050E-04
    820        1      903    5.479452050E-04
    821        1      904    5.479452050E-04
    822        1      905    5.479452050E-04
    823        1      906    5.479452050E-04
    824        1      907    5.479452050E-04
    825        1      908    5.479452050E-04
    826        1      909    5.479452050E-04
    827        1      910    5.479452050E-04
    828        1      911    5.479452050E-04
    829        1      912    5.479452050E-04
    830        1      913    5.479452050E-04
    831        1      914    5.479452050E-04
    832        1      915    5.479452050E-04
    833        1      916    5.479452050E-04
    834        1      917    5.479452050E-04
    835        1      918    5.479452050E-04
    836        1      919    5.479452050E-04
    837        1      920    5.479452050E-04
    838        1      921    5.479452050E-04
    839        1      922    5.479452050E-04
    840        1      923    5.479452050E-04
    841        1      924    5.479452050E-04
    842        1      925    5.479452050E-04
    843        1      926    5.479452050E-04
    844        1      927    5.479452050E-04
    845        1      930    5.479452050E-04
    846        1      931    5.479452050E-04
    847        1      932    5.479452050E-04
    848        1      933    5.479452050E-04
    849        1      934    5.479452050E-04
    850        1      935    5.479452050E-04
    851        1      936    5.479452050E-04
    852        1      937    5.479452050E-04
    853        1      938    5.479452050E-04
    854        1      939    5.479452050E-04
    855        1      940    5.479452050E-04
    856        1      941    5.479452050E-04
    857        1      942    5.479452050E-04
    858        1      943    5.479452050E-04
    859        1      944    5.479452050E-04
    860        1      945    5.479452050E-04
    861        1      946    5.479452050E-04
    862        1      947    5.479452050E-04
    863        1      948    5.479452050E-04
    864        1      949    5.479452050E-04
    865        1      950    5.479452050E-04
    866        1      951    5.479452050E-04
    867        1      952    5.479452050E-04
    868        1      953    5.479452050E-04
    869        1      954    5.479452050E-04
    870        1      955    5.479452050E-04
    871        1      956    5.479452050E-04
    872        1      957    5.479452050E-04
    873        1      958    5.479452050E-04
    874        1      959    5.479452050E-04
    875        1      960    5.479452050E-04
    876        1      961    5.479452050E-04
    877        1      962    5.479452050E-04
    878        1      963    5.479452050E-04
    879        1      964    5.479452050E-04
    880        1      965    5.479452050E-04
    881        1      966    5.479452050E-04
    882        1      967    5.479452050E-04
    883        1      968    5.479452050E-04
    884        1      969    5.479452050E-04
    885        1      970    5.479452050E-04
    886        1      971    5.479452050E-04
    887        1      972    5.479452050E-04
    888        1      973    5.479452050E-04
    889        1      974    5.479452050E-04
    890        1      975    5.479452050E-04
    891        1      976    5.479452050E-04
    892        1      977    5.479452050E-04
    893        1      978    5.479452050E-04
    894        1      979    5.479452050E-04
    895        1      980    5.479452050E-04
    896        1      981    5.479452050E-04
    897        1      982    5.479452050E-04
    898        1      983    5.479452050E-04
    899        1      984    5.479452050E-04
    900        1      985    5.479452050E-04
    901        1      986    5.479452050E-04
    902        1      987    5.479452050E-04
    903        1      988    5.479452050E-04
    904        1      989    5.479452050E-04
    905        1      990    5.479452050E-04
    906        1      991    5.479452050E-04
    907        1      992    5.479452050E-04
    908        1      993    5.479452050E-04
    909        1      994    5.479452050E-04
    910        1      995    5.479452050E-04
    911        1      996    5.479452050E-04
    912        1      997    5.479452050E-04
    913        1      998    5.479452050E-04
    914        1      999    5.479452050E-04
    915        1     1000    5.479452050E-04
    916        1     1001    5.479452050E-04
    917        1     1002    5.479452050E-04
    918        1     1003    5.479452050E-04
    919        1     1004    5.479452050E-04
    920        1     1005    5.479452050E-04
    921        1     1006    5.479452050E-04
    922        1     1007    5.479452050E-04
    923        1     1008    5.479452050E-04
    924        1     1009    5.479452050E-04
    925        1     1010    5.479452050E-04
    926        1     1011    5.479452050E-04
    927        1     1012    5.479452050E-04
    928        1     1013    5.479452050E-04
    929        1     1014    5.479452050E-04
    930        1     1015    5.479452050E-04
    931        1     1016    5.479452050E-04
    932        1     1017    5.479452050E-04
    933        1     1018    5.479452050E-04
    934        1     1019    5.479452050E-04
    935        1     1020    5.479452050E-04
    936        1     1021    5.479452050E-04
    937        1     1022    5.479452050E-04
    938        1     1023    5.479452050E-04
    939        1     1024    5.479452050E-04
    940        1     1025    5.479452050E-04
    941        1     1028    5.479452050E-04
    942        1     1029    5.479452050E-04
    943        1     1030    5.479452050E-04
    944        1     1031    5.479452050E-04
    945        1     1032    5.479452050E-04
    946        1     1033    5.479452050E-04
    947        1     1034    5.479452050E-04
    948        1     1035    5.479452050E-04
    949        1     1036    5.479452050E-04
    950        1     1037    5.479452050E-04
    951        1     1038    5.479452050E-04
    952        1     1039    5.479452050E-04
    953        1     1040    5.479452050E-04
    954        1     1041    5.479452050E-04
    955        1     1042    5.479452050E-04
    956        1     1043    5.479452050E-04
    957        1     1044    5.479452050E-04
    958        1     1045    5.479452050E-04
    959        1     1046    5.479452050E-04
    960        1     1047    5.479452050E-04
    961        1     1048    5.479452050E-04
    962        1     1049    5.479452050E-04
    963        1     1050    5.479452050E-04
    964        1     1051    5.479452050E-04
    965        1     1052    5.479452050E-04
    966        1     1053    5.479452050E-04
    967        1     1054    5.479452050E-04
    968        1     1055    5.479452050E-04
    969        1     1056    5.479452050E-04
    970        1     1057    5.479452050E-04
    971        1     1058    5.479452050E-04
    972        1     1059    5.479452050E-04
    973        1     1060    5.479452050E-04
    974        1     1061    5.479452050E-04
    975        1     1062    5.479452050E-04
    976        1     1063    5.479452050E-04
    977        1     1064    5.479452050E-04
    978        1     1065    5.479452050E-04
    979        1     1066    5.479452050E-04
    980        1     1067    5.479452050E-04
    981        1     1068    5.479452050E-04
    982        1     1069    5.479452050E-04
    983        1     1070    5.479452050E-04
    984        1     1071    5.479452050E-04
    985        1     1072    5.479452050E-04
    986        1     1073    5.479452050E-04
    987        1     1074    5.479452050E-04
    988        1     1075    5.479452050E-04
    989        1     1076    5.479452050E-04
    990        1     1077    5.479452050E-04
    991        1     1078    5.479452050E-04
    992        1     1079    5.479452050E-04
    993        1     1080    5.479452050E-04
    994        1     1081    5.479452050E-04
    995        1     1082    5.479452050E-04
    996        1     1083    5.479452050E-04
    997        1     1084    5.479452050E-04
    998        1     1085    5.479452050E-04
    999        1     1086    5.479452050E-04
    1000       1     1087    5.479452050E-04
    1001       1     1088    5.479452050E-04
    1002       1     1089    5.479452050E-04
    1003       1     1090    5.479452050E-04
    1004       1     1091    5.479452050E-04
    1005       1     1092    5.479452050E-04
    1006       1     1093    5.479452050E-04
    1007       1     1094    5.479452050E-04
    1008       1     1095    5.479452050E-04
    1009       1     1096    5.479452050E-04
    1010       1     1097    5.479452050E-04
    1011       1     1098    5.479452050E-04
    1012       1     1099    5.479452050E-04
    1013       1     1100    5.479452050E-04
    1014       1     1101    5.479452050E-04
    1015       1     1102    5.479452050E-04
    1016       1     1103    5.479452050E-04
    1017       1     1104    5.479452050E-04
    1018       1     1105    5.479452050E-04
    1019       1     1106    5.479452050E-04
    1020       1     1107    5.479452050E-04
    1021       1     1108    5.479452050E-04
    1022       1     1109    5.479452050E-04
    1023       1     1110    5.479452050E-04
    1024       1     1111    5.479452050E-04
    1025       1     1112    5.479452050E-04
    1026       1     1113    5.479452050E-04
    1027       1     1114    5.479452050E-04
    1028       1     1115    5.479452050E-04
    1029       1     1116    5.479452050E-04
    1030       1     1117    5.479452050E-04
    1031       1     1120    5.479452050E-04
    1032       1     1121    5.479452050E-04
    1033       1     1122    5.479452050E-04
    1034       1     1123    5.479452050E-04
    1035       1     1124    5.479452050E-04
    1036       1     1125    5.479452050E-04
    1037       1     1126    5.479452050E-04
    1038       1     1127    5.479452050E-04
    1039       1     1128    5.479452050E-04
    1040       1     1129    5.479452050E-04
    1041       1     1130    5.479452050E-04
    1042       1     1131    5.479452050E-04
    1043       1     1132    5.479452050E-04
    1044       1     1133    5.479452050E-04
    1045       1     1134    5.479452050E-04
    1046       1     1135    5.479452050E-04
    1047       1     1136    5.479452050E-04
    1048       1     1137    5.479452050E-04
    1049       1     1138    5.479452050E-04
    1050       1     1139    5.479452050E-04
    1051       1     1140    5.479452050E-04
    1052       1     1141    5.479452050E-04
    1053       1     1142    5.479452050E-04
    1054       1     1143    5.479452050E-04
    1055       1     1144    5.479452050E-04
    1056       1     1145    5.479452050E-04
    1057       1     1146    5.479452050E-04
    1058       1     1147    5.479452050E-04
    1059       1     1148    5.479452050E-04
    1060       1     1149    5.479452050E-04
    1061       1     1150    5.479452050E-04
    1062       1     1151    5.479452050E-04
    1063       1     1152    5.479452050E-04
    1064       1     1153    5.479452050E-04
    1065       1     1154    5.479452050E-04
    1066       1     1155    5.479452050E-04
    1067       1     1156    5.479452050E-04
    1068       1     1157    5.479452050E-04
    1069       1     1158    5.479452050E-04
    1070       1     1159    5.479452050E-04
    1071       1     1160    5.479452050E-04
    1072       1     1161    5.479452050E-04
    1073       1     1162    5.479452050E-04
    1074       1     1163    5.479452050E-04
    1075       1     1164    5.479452050E-04
    1076       1     1165    5.479452050E-04
    1077       1     1166    5.479452050E-04
    1078       1     1167    5.479452050E-04
    1079       1     1168    5.479452050E-04
    1080       1     1169    5.479452050E-04
    1081       1     1170    5.479452050E-04
    1082       1     1171    5.479452050E-04
    1083       1     1172    5.479452050E-04
    1084       1     1173    5.479452050E-04
    1085       1     1174    5.479452050E-04
    1086       1     1175    5.479452050E-04
    1087       1     1176    5.479452050E-04
    1088       1     1177    5.479452050E-04
    1089       1     1178    5.479452050E-04
    1090       1     1179    5.479452050E-04
    1091       1     1180    5.479452050E-04
    1092       1     1181    5.479452050E-04
    1093       1     1182    5.479452050E-04
    1094       1     1183    5.479452050E-04
    1095       1     1184    5.479452050E-04
    1096       1     1185    5.479452050E-04
    1097       1     1186    5.479452050E-04
    1098       1     1187    5.479452050E-04
    1099       1     1188    5.479452050E-04
    1100       1     1189    5.479452050E-04
    1101       1     1190    5.479452050E-04
    1102       1     1191    5.479452050E-04
    1103       1     1192    5.479452050E-04
    1104       1     1193    5.479452050E-04
    1105       1     1194    5.479452050E-04
    1106       1     1195    5.479452050E-04
    1107       1     1196    5.479452050E-04
    1108       1     1197    5.479452050E-04
    1109       1     1198    5.479452050E-04
    1110       1     1199    5.479452050E-04
    1111       1     1200    5.479452050E-04
    1112       1     1201    5.479452050E-04
    1113       1     1202    5.479452050E-04
    1114       1     1203    5.479452050E-04
    1115       1     1204    5.479452050E-04
    1116       1     1205    5.479452050E-04
    1117       1     1206    5.479452050E-04
    1118       1     1207    5.479452050E-04
    1119       1     1208    5.479452050E-04
    1120       1     1209    5.479452050E-04
    1121       1     1210    5.479452050E-04
    1122       1     1211    5.479452050E-04
    1123       1     1212    5.479452050E-04
    1124       1     1213    5.479452050E-04
    1125       1     1214    5.479452050E-04
    1126       1     1215    5.479452050E-04
    1127       1     1216    5.479452050E-04
    1128       1     1217    5.479452050E-04
    1129       1     1218    5.479452050E-04
    1130       1     1219    5.479452050E-04
    1131       1     1220    5.479452050E-04
    1132       1     1221    5.479452050E-04
    1133       1     1222    5.479452050E-04
    1134       1     1223    5.479452050E-04
    1135       1     1224    5.479452050E-04
    1136       1     1227    5.479452050E-04
    1137       1     1228    5.479452050E-04
    1138       1     1229    5.479452050E-04
    1139       1     1230    5.479452050E-04
    1140       1     1231    5.479452050E-04
    1141       1     1232    5.479452050E-04
    1142       1     1233    5.479452050E-04
    1143       1     1234    5.479452050E-04
    1144       1     1235    5.479452050E-04
    1145       1     1236    5.479452050E-04
    1146       1     1237    5.479452050E-04
    1147       1     1238    5.479452050E-04
    1148       1     1239    5.479452050E-04
    1149       1     1240    5.479452050E-04
    1150       1     1241    5.479452050E-04
    1151       1     1242    5.479452050E-04
    1152       1     1243    5.479452050E-04
    1153       1     1244    5.479452050E-04
    1154       1     1245    5.479452050E-04
    1155       1     1246    5.479452050E-04
    1156       1     1247    5.479452050E-04
    1157       1     1248    5.479452050E-04
    1158       1     1249    5.479452050E-04
    1159       1     1250    5.479452050E-04
    1160       1     1251    5.479452050E-04
    1161       1     1252    5.479452050E-04
    1162       1     1253    5.479452050E-04
    1163       1     1254    5.479452050E-04
    1164       1     1255    5.479452050E-04
    1165       1     1256    5.479452050E-04
    1166       1     1257    5.479452050E-04
    1167       1     1258    5.479452050E-04
    1168       1     1259    5.479452050E-04
    1169       1     1260    5.479452050E-04
    1170       1     1261    5.479452050E-04
    1171       1     1262    5.479452050E-04
    1172       1     1263    5.479452050E-04
    1173       1     1264    5.479452050E-04
    1174       1     1265    5.479452050E-04
    1175       1     1266    5.479452050E-04
    1176       1     1267    5.479452050E-04
    1177       1     1268    5.479452050E-04
    1178       1     1269    5.479452050E-04
    1179       1     1270    5.479452050E-04
    1180       1     1271    5.479452050E-04
    1181       1     1272    5.479452050E-04
    1182       1     1273    5.479452050E-04
    1183       1     1274    5.479452050E-04
    1184       1     1275    5.479452050E-04
    1185       1     1276    5.479452050E-04
    1186       1     1277    5.479452050E-04
    1187       1     1278    5.479452050E-04
    1188       1     1279    5.479452050E-04
    1189       1     1280    5.479452050E-04
    1190       1     1281    5.479452050E-04
    1191       1     1282    5.479452050E-04
    1192       1     1283    5.479452050E-04
    1193       1     1284    5.479452050E-04
    1194       1     1285    5.479452050E-04
    1195       1     1286    5.479452050E-04
    1196       1     1287    5.479452050E-04
    1197       1     1288    5.479452050E-04
    1198       1     1289    5.479452050E-04
    1199       1     1290    5.479452050E-04
    1200       1     1291    5.479452050E-04
    1201       1     1292    5.479452050E-04
    1202       1     1293    5.479452050E-04
    1203       1     1294    5.479452050E-04
    1204       1     1295    5.479452050E-04
    1205       1     1296    5.479452050E-04
    1206       1     1297    5.479452050E-04
    1207       1     1298    5.479452050E-04
    1208       1     1299    5.479452050E-04
    1209       1     1300    5.479452050E-04
    1210       1     1301    5.479452050E-04
    1211       1     1302    5.479452050E-04
    1212       1     1303    5.479452050E-04
    1213       1     1304    5.479452050E-04
    1214       1     1305    5.479452050E-04
    1215       1     1306    5.479452050E-04
    1216       1     1307    5.479452050E-04
    1217       1     1308    5.479452050E-04
    1218       1     1309    5.479452050E-04
    1219       1     1310    5.479452050E-04
    1220       1     1311    5.479452050E-04
    1221       1     1312    5.479452050E-04
    1222       1     1313    5.479452050E-04
    1223       1     1314    5.479452050E-04
    1224       1     1315    5.479452050E-04
    1225       1     1316    5.479452050E-04
    1226       1     1317    5.479452050E-04
    1227       1     1318    5.479452050E-04
    1228       1     1319    5.479452050E-04
    1229       1     1320    5.479452050E-04
    1230       1     1321    5.479452050E-04
    1231       1     1322    5.479452050E-04
    1232       1     1323    5.479452050E-04
    1233       1     1324    5.479452050E-04
    1234       1     1325    5.479452050E-04
    1235       1     1326    5.479452050E-04
    1236       1     1327    5.479452050E-04
    1237       1     1328    5.479452050E-04
    1238       1     1329    5.479452050E-04
    1239       1     1330    5.479452050E-04
    1240       1     1331    5.479452050E-04
    1241       1     1332    5.479452050E-04
    1242       1     1333    5.479452050E-04
    1243       1     1334    5.479452050E-04
    1244       1     1335    5.479452050E-04
    1245       1     1336    5.479452050E-04
    1246       1     1337    5.479452050E-04
    1247       1     1338    5.479452050E-04
    1248       1     1339    5.479452050E-04
    1249       1     1340    5.479452050E-04
    1250       1     1341    5.479452050E-04
    1251       1     1342    5.479452050E-04
    1252       1     1343    5.479452050E-04
    1253       1     1344    5.479452050E-04
    1254       1     1345    5.479452050E-04
    1255       1     1346    5.479452050E-04
    1256       1     1347    5.479452050E-04
    1257       1     1348    5.479452050E-04
    1258       1     1349    5.479452050E-04
    1259       1     1352    5.479452050E-04
    1260       1     1353    5.479452050E-04
    1261       1     1354    5.479452050E-04
    1262       1     1355    5.479452050E-04
    1263       1     1356    5.479452050E-04
    1264       1     1357    5.479452050E-04
    1265       1     1358    5.479452050E-04
    1266       1     1359    5.479452050E-04
    1267       1     1360    5.479452050E-04
    1268       1     1361    5.479452050E-04
    1269       1     1362    5.479452050E-04
    1270       1     1363    5.479452050E-04
    1271       1     1364    5.479452050E-04
    1272       1     1365    5.479452050E-04
    1273       1     1366    5.479452050E-04
    1274       1     1367    5.479452050E-04
    1275       1     1368    5.479452050E-04
    1276       1     1369    5.479452050E-04
    1277       1     1370    5.479452050E-04
    1278       1     1371    5.479452050E-04
    1279       1     1372    5.479452050E-04
    1280       1     1373    5.479452050E-04
    1281       1     1374    5.479452050E-04
    1282       1     1375    5.479452050E-04
    1283       1     1376    5.479452050E-04
    1284       1     1377    5.479452050E-04
    1285       1     1378    5.479452050E-04
    1286       1     1379    5.479452050E-04
    1287       1     1380    5.479452050E-04
    1288       1     1381    5.479452050E-04
    1289       1     1382    5.479452050E-04
    1290       1     1383    5.479452050E-04
    1291       1     1384    5.479452050E-04
    1292       1     1385    5.479452050E-04
    1293       1     1386    5.479452050E-04
    1294       1     1387    5.479452050E-04
    1295       1     1388    5.479452050E-04
    1296       1     1389    5.479452050E-04
    1297       1     1390    5.479452050E-04
    1298       1     1391    5.479452050E-04
    1299       1     1392    5.479452050E-04
    1300       1     1393    5.479452050E-04
    1301       1     1394    5.479452050E-04
    1302       1     1395    5.479452050E-04
    1303       1     1396    5.479452050E-04
    1304       1     1397    5.479452050E-04
    1305       1     1398    5.479452050E-04
    1306       1     1399    5.479452050E-04
    1307       1     1400    5.479452050E-04
    1308       1     1401    5.479452050E-04
    1309       1     1402    5.479452050E-04
    1310       1     1403    5.479452050E-04
    1311       1     1404    5.479452050E-04
    1312       1     1405    5.479452050E-04
    1313       1     1406    5.479452050E-04
    1314       1     1407    5.479452050E-04
    1315       1     1408    5.479452050E-04
    1316       1     1409    5.479452050E-04
    1317       1     1410    5.479452050E-04
    1318       1     1411    5.479452050E-04
    1319       1     1412    5.479452050E-04
    1320       1     1413    5.479452050E-04
    1321       1     1414    5.479452050E-04
    1322       1     1415    5.479452050E-04
    1323       1     1416    5.479452050E-04
    1324       1     1417    5.479452050E-04
    1325       1     1418    5.479452050E-04
    1326       1     1419    5.479452050E-04
    1327       1     1420    5.479452050E-04
    1328       1     1421    5.479452050E-04
    1329       1     1422    5.479452050E-04
    1330       1     1423    5.479452050E-04
    1331       1     1424    5.479452050E-04
    1332       1     1425    5.479452050E-04
    1333       1     1426    5.479452050E-04
    1334       1     1427    5.479452050E-04
    1335       1     1428    5.479452050E-04
    1336       1     1429    5.479452050E-04
    1337       1     1430    5.479452050E-04
    1338       1     1431    5.479452050E-04
    1339       1     1432    5.479452050E-04
    1340       1     1433    5.479452050E-04
    1341       1     1434    5.479452050E-04
    1342       1     1435    5.479452050E-04
    1343       1     1436    5.479452050E-04
    1344       1     1437    5.479452050E-04
    1345       1     1438    5.479452050E-04
    1346       1     1439    5.479452050E-04
    1347       1     1440    5.479452050E-04
    1348       1     1441    5.479452050E-04
    1349       1     1442    5.479452050E-04
    1350       1     1443    5.479452050E-04
    1351       1     1444    5.479452050E-04
    1352       1     1445    5.479452050E-04
    1353       1     1446    5.479452050E-04
    1354       1     1447    5.479452050E-04
    1355       1     1448    5.479452050E-04
    1356       1     1449    5.479452050E-04
    1357       1     1450    5.479452050E-04
    1358       1     1451    5.479452050E-04
    1359       1     1452    5.479452050E-04
    1360       1     1453    5.479452050E-04
    1361       1     1454    5.479452050E-04
    1362       1     1455    5.479452050E-04
    1363       1     1456    5.479452050E-04
    1364       1     1457    5.479452050E-04
    1365       1     1458    5.479452050E-04
    1366       1     1459    5.479452050E-04
    1367       1     1460    5.479452050E-04
    1368       1     1461    5.479452050E-04
    1369       1     1462    5.479452050E-04
    1370       1     1463    5.479452050E-04
    1371       1     1464    5.479452050E-04
    1372       1     1465    5.479452050E-04
    1373       1     1466    5.479452050E-04
    1374       1     1467    5.479452050E-04
    1375       1     1468    5.479452050E-04
    1376       1     1469    5.479452050E-04
    1377       1     1470    5.479452050E-04
    1378       1     1471    5.479452050E-04
    1379       1     1472    5.479452050E-04
    1380       1     1473    5.479452050E-04
    1381       1     1474    5.479452050E-04
    1382       1     1475    5.479452050E-04
    1383       1     1476    5.479452050E-04
    1384       1     1477    5.479452050E-04
    1385       1     1478    5.479452050E-04
    1386       1     1479    5.479452050E-04
    1387       1     1480    5.479452050E-04
    1388       1     1481    5.479452050E-04
    1389       1     1482    5.479452050E-04
    1390       1     1483    5.479452050E-04
    1391       1     1484    5.479452050E-04
    1392       1     1485    5.479452050E-04
    1393       1     1486    5.479452050E-04
    1394       1     1488    5.479452050E-04
    1395       1     1489    5.479452050E-04
    1396       1     1490    5.479452050E-04
    1397       1     1491    5.479452050E-04
    1398       1     1492    5.479452050E-04
    1399       1     1493    5.479452050E-04
    1400       1     1494    5.479452050E-04
    1401       1     1495    5.479452050E-04
    1402       1     1496    5.479452050E-04
    1403       1     1497    5.479452050E-04
    1404       1     1498    5.479452050E-04
    1405       1     1499    5.479452050E-04
    1406       1     1500    5.479452050E-04
    1407       1     1501    5.479452050E-04
    1408       1     1502    5.479452050E-04
    1409       1     1503    5.479452050E-04
    1410       1     1504    5.479452050E-04
    1411       1     1505    5.479452050E-04
    1412       1     1506    5.479452050E-04
    1413       1     1507    5.479452050E-04
    1414       1     1508    5.479452050E-04
    1415       1     1509    5.479452050E-04
    1416       1     1510    5.479452050E-04
    1417       1     1511    5.479452050E-04
    1418       1     1512    5.479452050E-04
    1419       1     1513    5.479452050E-04
    1420       1     1514    5.479452050E-04
    1421       1     1515    5.479452050E-04
    1422       1     1516    5.479452050E-04
    1423       1     1517    5.479452050E-04
    1424       1     1518    5.479452050E-04
    1425       1     1519    5.479452050E-04
    1426       1     1520    5.479452050E-04
    1427       1     1521    5.479452050E-04
    1428       1     1522    5.479452050E-04
    1429       1     1523    5.479452050E-04
    1430       1     1524    5.479452050E-04
    1431       1     1525    5.479452050E-04
    1432       1     1526    5.479452050E-04
    1433       1     1527    5.479452050E-04
    1434       1     1528    5.479452050E-04
    1435       1     1529    5.479452050E-04
    1436       1     1530    5.479452050E-04
    1437       1     1531    5.479452050E-04
    1438       1     1532    5.479452050E-04
    1439       1     1533    5.479452050E-04
    1440       1     1534    5.479452050E-04
    1441       1     1535    5.479452050E-04
    1442       1     1536    5.479452050E-04
    1443       1     1537    5.479452050E-04
    1444       1     1538    5.479452050E-04
    1445       1     1539    5.479452050E-04
    1446       1     1540    5.479452050E-04
    1447       1     1541    5.479452050E-04
    1448       1     1542    5.479452050E-04
    1449       1     1543    5.479452050E-04
    1450       1     1544    5.479452050E-04
    1451       1     1545    5.479452050E-04
    1452       1     1546    5.479452050E-04
    1453       1     1547    5.479452050E-04
    1454       1     1548    5.479452050E-04
    1455       1     1549    5.479452050E-04
    1456       1     1550    5.479452050E-04
    1457       1     1551    5.479452050E-04
    1458       1     1552    5.479452050E-04
    1459       1     1553    5.479452050E-04
    1460       1     1554    5.479452050E-04
    1461       1     1555    5.479452050E-04
    1462       1     1556    5.479452050E-04
    1463       1     1557    5.479452050E-04
    1464       1     1558    5.479452050E-04
    1465       1     1559    5.479452050E-04
    1466       1     1560    5.479452050E-04
    1467       1     1561    5.479452050E-04
    1468       1     1562    5.479452050E-04
    1469       1     1563    5.479452050E-04
    1470       1     1564    5.479452050E-04
    1471       1     1565    5.479452050E-04
    1472       1     1566    5.479452050E-04
    1473       1     1567    5.479452050E-04
    1474       1     1568    5.479452050E-04
    1475       1     1569    5.479452050E-04
    1476       1     1570    5.479452050E-04
    1477       1     1571    5.479452050E-04
    1478       1     1572    5.479452050E-04
    1479       1     1573    5.479452050E-04
    1480       1     1574    5.479452050E-04
    1481       1     1575    5.479452050E-04
    1482       1     1576    5.479452050E-04
    1483       1     1577    5.479452050E-04
    1484       1     1578    5.479452050E-04
    1485       1     1579    5.479452050E-04
    1486       1     1580    5.479452050E-04
    1487       1     1581    5.479452050E-04
    1488       1     1582    5.479452050E-04
    1489       1     1583    5.479452050E-04
    1490       1     1584    5.479452050E-04
    1491       1     1585    5.479452050E-04
    1492       1     1586    5.479452050E-04
    1493       1     1587    5.479452050E-04
    1494       1     1588    5.479452050E-04
    1495       1     1589    5.479452050E-04
    1496       1     1590    5.479452050E-04
    1497       1     1591    5.479452050E-04
    1498       1     1592    5.479452050E-04
    1499       1     1593    5.479452050E-04
    1500       1     1594    5.479452050E-04
    1501       1     1595    5.479452050E-04
    1502       1     1596    5.479452050E-04
    1503       1     1597    5.479452050E-04
    1504       1     1598    5.479452050E-04
    1505       1     1599    5.479452050E-04
    1506       1     1600    5.479452050E-04
    1507       1     1601    5.479452050E-04
    1508       1     1602    5.479452050E-04
    1509       1     1603    5.479452050E-04
    1510       1     1604    5.479452050E-04
    1511       1     1605    5.479452050E-04
    1512       1     1606    5.479452050E-04
    1513       1     1607    5.479452050E-04
    1514       1     1608    5.479452050E-04
    1515       1     1609    5.479452050E-04
    1516       1     1610    5.479452050E-04
    1517       1     1611    5.479452050E-04
    1518       1     1612    5.479452050E-04
    1519       1     1613    5.479452050E-04
    1520       1     1614    5.479452050E-04
    1521       1     1615    5.479452050E-04
    1522       1     1616    5.479452050E-04
    1523       1     1617    5.479452050E-04
    1524       1     1618    5.479452050E-04
    1525       1     1619    5.479452050E-04
    1526       1     1622    5.479452050E-04
    1527       1     1623    5.479452050E-04
    1528       1     1624    5.479452050E-04
    1529       1     1625    5.479452050E-04
    1530       1     1626    5.479452050E-04
    1531       1     1627    5.479452050E-04
    1532       1     1628    5.479452050E-04
    1533       1     1629    5.479452050E-04
    1534       1     1630    5.479452050E-04
    1535       1     1631    5.479452050E-04
    1536       1     1632    5.479452050E-04
    1537       1     1633    5.479452050E-04
    1538       1     1634    5.479452050E-04
    1539       1     1635    5.479452050E-04
    1540       1     1636    5.479452050E-04
    1541       1     1637    5.479452050E-04
    1542       1     1638    5.479452050E-04
    1543       1     1639    5.479452050E-04
    1544       1     1640    5.479452050E-04
    1545       1     1641    5.479452050E-04
    1546       1     1642    5.479452050E-04
    1547       1     1643    5.479452050E-04
    1548       1     1644    5.479452050E-04
    1549       1     1645    5.479452050E-04
    1550       1     1646    5.479452050E-04
    1551       1     1647    5.479452050E-04
    1552       1     1648    5.479452050E-04
    1553       1     1649    5.479452050E-04
    1554       1     1650    5.479452050E-04
    1555       1     1651    5.479452050E-04
    1556       1     1652    5.479452050E-04
    1557       1     1653    5.479452050E-04
    1558       1     1654    5.479452050E-04
    1559       1     1655    5.479452050E-04
    1560       1     1656    5.479452050E-04
    1561       1     1657    5.479452050E-04
    1562       1     1658    5.479452050E-04
    1563       1     1659    5.479452050E-04
    1564       1     1660    5.479452050E-04
    1565       1     1661    5.479452050E-04
    1566       1     1662    5.479452050E-04
    1567       1     1663    5.479452050E-04
    1568       1     1664    5.479452050E-04
    1569       1     1665    5.479452050E-04
    1570       1     1666    5.479452050E-04
    1571       1     1667    5.479452050E-04
    1572       1     1668    5.479452050E-04
    1573       1     1669    5.479452050E-04
    1574       1     1670    5.479452050E-04
    1575       1     1671    5.479452050E-04
    1576       1     1672    5.479452050E-04
    1577       1     1673    5.479452050E-04
    1578       1     1674    5.479452050E-04
    1579       1     1675    5.479452050E-04
    1580       1     1676    5.479452050E-04
    1581       1     1677    5.479452050E-04
    1582       1     1678    5.479452050E-04
    1583       1     1679    5.479452050E-04
    1584       1     1680    5.479452050E-04
    1585       1     1681    5.479452050E-04
    1586       1     1682    5.479452050E-04
    1587       1     1683    5.479452050E-04
    1588       1     1684    5.479452050E-04
    1589       1     1685    5.479452050E-04
    1590       1     1686    5.479452050E-04
    1591       1     1687    5.479452050E-04
    1592       1     1688    5.479452050E-04
    1593       1     1689    5.479452050E-04
    1594       1     1690    5.479452050E-04
    1595       1     1691    5.479452050E-04
    1596       1     1692    5.479452050E-04
    1597       1     1693    5.479452050E-04
    1598       1     1694    5.479452050E-04
    1599       1     1695    5.479452050E-04
    1600       1     1696    5.479452050E-04
    1601       1     1697    5.479452050E-04
    1602       1     1698    5.479452050E-04
    1603       1     1699    5.479452050E-04
    1604       1     1700    5.479452050E-04
    1605       1     1701    5.479452050E-04
    1606       1     1702    5.479452050E-04
    1607       1     1703    5.479452050E-04
    1608       1     1704    5.479452050E-04
    1609       1     1705    5.479452050E-04
    1610       1     1706    5.479452050E-04
    1611       1     1707    5.479452050E-04
    1612       1     1708    5.479452050E-04
    1613       1     1709    5.479452050E-04
    1614       1     1710    5.479452050E-04
    1615       1     1711    5.479452050E-04
    1616       1     1712    5.479452050E-04
    1617       1     1713    5.479452050E-04
    1618       1     1714    5.479452050E-04
    1619       1     1715    5.479452050E-04
    1620       1     1716    5.479452050E-04
    1621       1     1717    5.479452050E-04
    1622       1     1718    5.479452050E-04
    1623       1     1719    5.479452050E-04
    1624       1     1720    5.479452050E-04
    1625       1     1721    5.479452050E-04
    1626       1     1722    5.479452050E-04
    1627       1     1723    5.479452050E-04
    1628       1     1724    5.479452050E-04
    1629       1     1725    5.479452050E-04
    1630       1     1726    5.479452050E-04
    1631       1     1727    5.479452050E-04
    1632       1     1728    5.479452050E-04
    1633       1     1729    5.479452050E-04
    1634       1     1730    5.479452050E-04
    1635       1     1731    5.479452050E-04
    1636       1     1732    5.479452050E-04
    1637       1     1733    5.479452050E-04
    1638       1     1734    5.479452050E-04
    1639       1     1735    5.479452050E-04
    1640       1     1736    5.479452050E-04
    1641       1     1737    5.479452050E-04
    1642       1     1738    5.479452050E-04
    1643       1     1739    5.479452050E-04
    1644       1     1740    5.479452050E-04
    1645       1     1741    5.479452050E-04
    1646       1     1742    5.479452050E-04
    1647       1     1743    5.479452050E-04
    1648       1     1744    5.479452050E-04
    1649       1     1745    5.479452050E-04
    1650       1     1746    5.479452050E-04
    1651       1     1747    5.479452050E-04
    1652       1     1748    5.479452050E-04
    1653       1     1749    5.479452050E-04
    1654       1     1750    5.479452050E-04
    1655       1     1751    5.479452050E-04
    1656       1     1752    5.479452050E-04
    1657       1     1753    5.479452050E-04
    1658       1     1754    5.479452050E-04
    1659       1     1755    5.479452050E-04
    1660       1     1756    5.479452050E-04
    1661       1     1757    5.479452050E-04
    1662       1     1758    5.479452050E-04
    1663       1     1759    5.479452050E-04
    1664       1     1760    5.479452050E-04
    1665       1     1761    5.479452050E-04
    1666       1     1762    5.479452050E-04
    1667       1     1763    5.479452050E-04
    1668       1     1766    5.479452050E-04
    1669       1     1767    5.479452050E-04
    1670       1     1768    5.479452050E-04
    1671       1     1769    5.479452050E-04
    1672       1     1770    5.479452050E-04
    1673       1     1771    5.479452050E-04
    1674       1     1772    5.479452050E-04
    1675       1     1773    5.479452050E-04
    1676       1     1774    5.479452050E-04
    1677       1     1775    5.479452050E-04
    1678       1     1776    5.479452050E-04
    1679       1     1777    5.479452050E-04
    1680       1     1778    5.479452050E-04
    1681       1     1779    5.479452050E-04
    1682       1     1780    5.479452050E-04
    1683       1     1781    5.479452050E-04
    1684       1     1782    5.479452050E-04
    1685       1     1783    5.479452050E-04
    1686       1     1784    5.479452050E-04
    1687       1     1785    5.479452050E-04
    1688       1     1786    5.479452050E-04
    1689       1     1787    5.479452050E-04
    1690       1     1788    5.479452050E-04
    1691       1     1789    5.479452050E-04
    1692       1     1790    5.479452050E-04
    1693       1     1791    5.479452050E-04
    1694       1     1792    5.479452050E-04
    1695       1     1793    5.479452050E-04
    1696       1     1794    5.479452050E-04
    1697       1     1795    5.479452050E-04
    1698       1     1796    5.479452050E-04
    1699       1     1797    5.479452050E-04
    1700       1     1798    5.479452050E-04
    1701       1     1799    5.479452050E-04
    1702       1     1800    5.479452050E-04
    1703       1     1801    5.479452050E-04
    1704       1     1802    5.479452050E-04
    1705       1     1803    5.479452050E-04
    1706       1     1804    5.479452050E-04
    1707       1     1805    5.479452050E-04
    1708       1     1806    5.479452050E-04
    1709       1     1807    5.479452050E-04
    1710       1     1808    5.479452050E-04
    1711       1     1809    5.479452050E-04
    1712       1     1810    5.479452050E-04
    1713       1     1811    5.479452050E-04
    1714       1     1812    5.479452050E-04
    1715       1     1813    5.479452050E-04
    1716       1     1814    5.479452050E-04
    1717       1     1815    5.479452050E-04
    1718       1     1816    5.479452050E-04
    1719       1     1817    5.479452050E-04
    1720       1     1818    5.479452050E-04
    1721       1     1819    5.479452050E-04
    1722       1     1820    5.479452050E-04
    1723       1     1821    5.479452050E-04
    1724       1     1822    5.479452050E-04
    1725       1     1823    5.479452050E-04
    1726       1     1824    5.479452050E-04
    1727       1     1825    5.479452050E-04
    1728       1     1826    5.479452050E-04
    1729       1     1827    5.479452050E-04
    1730       1     1828    5.479452050E-04
    1731       1     1829    5.479452050E-04
    1732       1     1830    5.479452050E-04
    1733       1     1831    5.479452050E-04
    1734       1     1832    5.479452050E-04
    1735       1     1833    5.479452050E-04
    1736       1     1834    5.479452050E-04
    1737       1     1835    5.479452050E-04
    1738       1     1836    5.479452050E-04
    1739       1     1837    5.479452050E-04
    1740       1     1838    5.479452050E-04
    1741       1     1839    5.479452050E-04
    1742       1     1840    5.479452050E-04
    1743       1     1841    5.479452050E-04
    1744       1     1842    5.479452050E-04
    1745       1     1843    5.479452050E-04
    1746       1     1844    5.479452050E-04
    1747       1     1845    5.479452050E-04
    1748       1     1846    5.479452050E-04
    1749       1     1847    5.479452050E-04
    1750       1     1848    5.479452050E-04
    1751       1     1849    5.479452050E-04
    1752       1     1850    5.479452050E-04
    1753       1     1851    5.479452050E-04
    1754       1     1852    5.479452050E-04
    1755       1     1853    5.479452050E-04
    1756       1     1854    5.479452050E-04
    1757       1     1855    5.479452050E-04
    1758       1     1856    5.479452050E-04
    1759       1     1857    5.479452050E-04
    1760       1     1858    5.479452050E-04
    1761       1     1859    5.479452050E-04
    1762       1     1860    5.479452050E-04
    1763       1     1861    5.479452050E-04
    1764       1     1862    5.479452050E-04
    1765       1     1863    5.479452050E-04
    1766       1     1864    5.479452050E-04
    1767       1     1865    5.479452050E-04
    1768       1     1866    5.479452050E-04
    1769       1     1867    5.479452050E-04
    1770       1     1868    5.479452050E-04
    1771       1     1869    5.479452050E-04
    1772       1     1870    5.479452050E-04
    1773       1     1871    5.479452050E-04
    1774       1     1872    5.479452050E-04
    1775       1     1873    5.479452050E-04
    1776       1     1874    5.479452050E-04
    1777       1     1875    5.479452050E-04
    1778       1     1876    5.479452050E-04
    1779       1     1877    5.479452050E-04
    1780       1     1878    5.479452050E-04
    1781       1     1879    5.479452050E-04
    1782       1     1880    5.479452050E-04
    1783       1     1881    5.479452050E-04
    1784       1     1882    5.479452050E-04
    1785       1     1883    5.479452050E-04
    1786       1     1884    5.479452050E-04
    1787       1     1885    5.479452050E-04
    1788       1     1886    5.479452050E-04
    1789       1     1887    5.479452050E-04
    1790       1     1888    5.479452050E-04
    1791       1     1889    5.479452050E-04
    1792       1     1890    5.479452050E-04
    1793       1     1891    5.479452050E-04
    1794       1     1892    5.479452050E-04
    1795       1     1893    5.479452050E-04
    1796       1     1894    5.479452050E-04
    1797       1     1897    5.479452050E-04
    1798       1     1898    5.479452050E-04
    1799       1     1899    5.479452050E-04
    1800       1     1900    5.479452050E-04
    1801       1     1901    5.479452050E-04
    1802       1     1902    5.479452050E-04
    1803       1     1903    5.479452050E-04
    1804       1     1904    5.479452050E-04
    1805       1     1905    5.479452050E-04
    1806       1     1906    5.479452050E-04
    1807       1     1907    5.479452050E-04
    1808       1     1908    5.479452050E-04
    1809       1     1909    5.479452050E-04
    1810       1     1910    5.479452050E-04
    1811       1     1911    5.479452050E-04
    1812       1     1912    5.479452050E-04
    1813       1     1913    5.479452050E-04
    1814       1     1914    5.479452050E-04
    1815       1     1915    5.479452050E-04
    1816       1     1916    5.479452050E-04
    1817       1     1917    5.479452050E-04
    1818       1     1918    5.479452050E-04
    1819       1     1919    5.479452050E-04
    1820       1     1920    5.479452050E-04
    1821       1     1921    5.479452050E-04
    1822       1     1922    5.479452050E-04
    1823       1     1923    5.479452050E-04
    1824       1     1924    5.479452050E-04
    1825       1     1925    5.479452050E-04
    1826       1     1926    5.479452050E-04
    1827       1     1927    5.479452050E-04
    1828       1     1928    5.479452050E-04
    1829       1     1929    5.479452050E-04
    1830       1     1930    5.479452050E-04
    1831       1     1931    5.479452050E-04
    1832       1     1932    5.479452050E-04
    1833       1     1933    5.479452050E-04
    1834       1     1934    5.479452050E-04
    1835       1     1935    5.479452050E-04
    1836       1     1936    5.479452050E-04
    1837       1     1937    5.479452050E-04
    1838       1     1938    5.479452050E-04
    1839       1     1939    5.479452050E-04
    1840       1     1940    5.479452050E-04
    1841       1     1941    5.479452050E-04
    1842       1     1942    5.479452050E-04
    1843       1     1943    5.479452050E-04
    1844       1     1944    5.479452050E-04
    1845       1     1945    5.479452050E-04
    1846       1     1946    5.479452050E-04
    1847       1     1947    5.479452050E-04
    1848       1     1948    5.479452050E-04
    1849       1     1949    5.479452050E-04
    1850       1     1950    5.479452050E-04
    1851       1     1951    5.479452050E-04
    1852       1     1952    5.479452050E-04
    1853       1     1953    5.479452050E-04
    1854       1     1954    5.479452050E-04
    1855       1     1955    5.479452050E-04
    1856       1     1956    5.479452050E-04
    1857       1     1957    5.479452050E-04
    1858       1     1958    5.479452050E-04
    1859       1     1959    5.479452050E-04
    1860       1     1960    5.479452050E-04
    1861       1     1961    5.479452050E-04
    1862       1     1962    5.479452050E-04
    1863       1     1963    5.479452050E-04
    1864       1     1964    5.479452050E-04
    1865       1     1965    5.479452050E-04
    1866       1     1966    5.479452050E-04
    1867       1     1967    5.479452050E-04
    1868       1     1968    5.479452050E-04
    1869       1     1969    5.479452050E-04
    1870       1     1970    5.479452050E-04
    1871       1     1971    5.479452050E-04
    1872       1     1972    5.479452050E-04
    1873       1     1973    5.479452050E-04
    1874       1     1974    5.479452050E-04
    1875       1     1975    5.479452050E-04
    1876       1     1976    5.479452050E-04
    1877       1     1977    5.479452050E-04
    1878       1     1978    5.479452050E-04
    1879       1     1979    5.479452050E-04
    1880       1     1980    5.479452050E-04
    1881       1     1981    5.479452050E-04
    1882       1     1982    5.479452050E-04
    1883       1     1983    5.479452050E-04
    1884       1     1984    5.479452050E-04
    1885       1     1985    5.479452050E-04
    1886       1     1986    5.479452050E-04
    1887       1     1987    5.479452050E-04
    1888       1     1988    5.479452050E-04
    1889       1     1989    5.479452050E-04
    1890       1     1990    5.479452050E-04
    1891       1     1991    5.479452050E-04
    1892       1     1992    5.479452050E-04
    1893       1     1993    5.479452050E-04
    1894       1     1994    5.479452050E-04
    1895       1     1995    5.479452050E-04
    1896       1     1996    5.479452050E-04
    1897       1     1997    5.479452050E-04
    1898       1     1998    5.479452050E-04
    1899       1     1999    5.479452050E-04
    1900       1     2000    5.479452050E-04
    1901       1     2001    5.479452050E-04
    1902       1     2002    5.479452050E-04
    1903       1     2003    5.479452050E-04
    1904       1     2004    5.479452050E-04
    1905       1     2005    5.479452050E-04
    1906       1     2006    5.479452050E-04
    1907       1     2007    5.479452050E-04
    1908       1     2008    5.479452050E-04
    1909       1     2009    5.479452050E-04
    1910       1     2010    5.479452050E-04
    1911       1     2011    5.479452050E-04
    1912       1     2012    5.479452050E-04
    1913       1     2013    5.479452050E-04
    1914       1     2014    5.479452050E-04
    1915       1     2015    5.479452050E-04
    1916       1     2016    5.479452050E-04
    1917       1     2017    5.479452050E-04
    1918       1     2018    5.479452050E-04
    1919       1     2019    5.479452050E-04
    1920       1     2020    5.479452050E-04
    1921       1     2021    5.479452050E-04
    1922       1     2022    5.479452050E-04
    1923       1     2023    5.479452050E-04
    1924       1     2024    5.479452050E-04
    1925       1     2025    5.479452050E-04
    1926       1     2026    5.479452050E-04
    1927       1     2027    5.479452050E-04
    1928       1     2028    5.479452050E-04
    1929       1     2029    5.479452050E-04
    1930       1     2030    5.479452050E-04
    1931       1     2031    5.479452050E-04
    1932       1     2032    5.479452050E-04
    1933       1     2033    5.479452050E-04
    1934       1     2034    5.479452050E-04
    1935       1     2035    5.479452050E-04
    1936       1     2036    5.479452050E-04
    1937       1     2037    5.479452050E-04
    1938       1     2038    5.479452050E-04
    1939       1     2039    5.479452050E-04
    1940       1     2042    5.479452050E-04
    1941       1     2043    5.479452050E-04
    1942       1     2044    5.479452050E-04
    1943       1     2045    5.479452050E-04
    1944       1     2046    5.479452050E-04
    1945       1     2047    5.479452050E-04
    1946       1     2048    5.479452050E-04
    1947       1     2049    5.479452050E-04
    1948       1     2050    5.479452050E-04
    1949       1     2051    5.479452050E-04
    1950       1     2052    5.479452050E-04
    1951       1     2053    5.479452050E-04
    1952       1     2054    5.479452050E-04
    1953       1     2055    5.479452050E-04
    1954       1     2056    5.479452050E-04
    1955       1     2057    5.479452050E-04
    1956       1     2058    5.479452050E-04
    1957       1     2059    5.479452050E-04
    1958       1     2060    5.479452050E-04
    1959       1     2061    5.479452050E-04
    1960       1     2062    5.479452050E-04
    1961       1     2063    5.479452050E-04
    1962       1     2064    5.479452050E-04
    1963       1     2065    5.479452050E-04
    1964       1     2066    5.479452050E-04
    1965       1     2067    5.479452050E-04
    1966       1     2068    5.479452050E-04
    1967       1     2069    5.479452050E-04
    1968       1     2070    5.479452050E-04
    1969       1     2071    5.479452050E-04
    1970       1     2072    5.479452050E-04
    1971       1     2073    5.479452050E-04
    1972       1     2074    5.479452050E-04
    1973       1     2075    5.479452050E-04
    1974       1     2076    5.479452050E-04
    1975       1     2077    5.479452050E-04
    1976       1     2078    5.479452050E-04
    1977       1     2079    5.479452050E-04
    1978       1     2080    5.479452050E-04
    1979       1     2081    5.479452050E-04
    1980       1     2082    5.479452050E-04
    1981       1     2083    5.479452050E-04
    1982       1     2084    5.479452050E-04
    1983       1     2085    5.479452050E-04
    1984       1     2086    5.479452050E-04
    1985       1     2087    5.479452050E-04
    1986       1     2088    5.479452050E-04
    1987       1     2089    5.479452050E-04
    1988       1     2090    5.479452050E-04
    1989       1     2091    5.479452050E-04
    1990       1     2092    5.479452050E-04
    1991       1     2093    5.479452050E-04
    1992       1     2094    5.479452050E-04
    1993       1     2095    5.479452050E-04
    1994       1     2096    5.479452050E-04
    1995       1     2097    5.479452050E-04
    1996       1     2098    5.479452050E-04
    1997       1     2099    5.479452050E-04
    1998       1     2100    5.479452050E-04
    1999       1     2101    5.479452050E-04
    2000       1     2102    5.479452050E-04
    2001       1     2103    5.479452050E-04
    2002       1     2104    5.479452050E-04
    2003       1     2105    5.479452050E-04
    2004       1     2106    5.479452050E-04
    2005       1     2107    5.479452050E-04
    2006       1     2108    5.479452050E-04
    2007       1     2109    5.479452050E-04
    2008       1     2110    5.479452050E-04
    2009       1     2111    5.479452050E-04
    2010       1     2112    5.479452050E-04
    2011       1     2113    5.479452050E-04
    2012       1     2114    5.479452050E-04
    2013       1     2115    5.479452050E-04
    2014       1     2116    5.479452050E-04
    2015       1     2117    5.479452050E-04
    2016       1     2118    5.479452050E-04
    2017       1     2119    5.479452050E-04
    2018       1     2120    5.479452050E-04
    2019       1     2121    5.479452050E-04
    2020       1     2122    5.479452050E-04
    2021       1     2123    5.479452050E-04
    2022       1     2124    5.479452050E-04
    2023       1     2125    5.479452050E-04
    2024       1     2126    5.479452050E-04
    2025       1     2127    5.479452050E-04
    2026       1     2128    5.479452050E-04
    2027       1     2129    5.479452050E-04
    2028       1     2130    5.479452050E-04
    2029       1     2131    5.479452050E-04
    2030       1     2132    5.479452050E-04
    2031       1     2133    5.479452050E-04
    2032       1     2134    5.479452050E-04
    2033       1     2135    5.479452050E-04
    2034       1     2136    5.479452050E-04
    2035       1     2137    5.479452050E-04
    2036       1     2138    5.479452050E-04
    2037       1     2141    5.479452050E-04
    2038       1     2142    5.479452050E-04
    2039       1     2143    5.479452050E-04
    2040       1     2144    5.479452050E-04
    2041       1     2145    5.479452050E-04
    2042       1     2146    5.479452050E-04
    2043       1     2147    5.479452050E-04
    2044       1     2148    5.479452050E-04
    2045       1     2149    5.479452050E-04
    2046       1     2150    5.479452050E-04
    2047       1     2151    5.479452050E-04
    2048       1     2152    5.479452050E-04
    2049       1     2153    5.479452050E-04
    2050       1     2154    5.479452050E-04
    2051       1     2155    5.479452050E-04
    2052       1     2156    5.479452050E-04
    2053       1     2157    5.479452050E-04
    2054       1     2158    5.479452050E-04
    2055       1     2159    5.479452050E-04
    2056       1     2160    5.479452050E-04
    2057       1     2161    5.479452050E-04
    2058       1     2162    5.479452050E-04
    2059       1     2163    5.479452050E-04
    2060       1     2164    5.479452050E-04
    2061       1     2165    5.479452050E-04
    2062       1     2166    5.479452050E-04
    2063       1     2167    5.479452050E-04
    2064       1     2168    5.479452050E-04
    2065       1     2169    5.479452050E-04
    2066       1     2170    5.479452050E-04
    2067       1     2171    5.479452050E-04
    2068       1     2172    5.479452050E-04
    2069       1     2173    5.479452050E-04
    2070       1     2174    5.479452050E-04
    2071       1     2175    5.479452050E-04
    2072       1     2176    5.479452050E-04
    2073       1     2177    5.479452050E-04
    2074       1     2178    5.479452050E-04
    2075       1     2179    5.479452050E-04
    2076       1     2180    5.479452050E-04
    2077       1     2181    5.479452050E-04
    2078       1     2182    5.479452050E-04
    2079       1     2183    5.479452050E-04
    2080       1     2184    5.479452050E-04
    2081       1     2185    5.479452050E-04
    2082       1     2186    5.479452050E-04
    2083       1     2187    5.479452050E-04
    2084       1     2188    5.479452050E-04
    2085       1     2189    5.479452050E-04
    2086       1     2190    5.479452050E-04
    2087       1     2191    5.479452050E-04
    2088       1     2192    5.479452050E-04
    2089       1     2193    5.479452050E-04
    2090       1     2194    5.479452050E-04
    2091       1     2195    5.479452050E-04
    2092       1     2196    5.479452050E-04
    2093       1     2197    5.479452050E-04
    2094       1     2198    5.479452050E-04
    2095       1     2199    5.479452050E-04
    2096       1     2200    5.479452050E-04
    2097       1     2201    5.479452050E-04
    2098       1     2202    5.479452050E-04
    2099       1     2203    5.479452050E-04
    2100       1     2204    5.479452050E-04
    2101       1     2205    5.479452050E-04
    2102       1     2206    5.479452050E-04
    2103       1     2207    5.479452050E-04
    2104       1     2208    5.479452050E-04
    2105       1     2209    5.479452050E-04
    2106       1     2210    5.479452050E-04
    2107       1     2211    5.479452050E-04
    2108       1     2212    5.479452050E-04
    2109       1     2213    5.479452050E-04
    2110       1     2214    5.479452050E-04
    2111       1     2215    5.479452050E-04
    2112       1     2216    5.479452050E-04
    2113       1     2217    5.479452050E-04
    2114       1     2218    5.479452050E-04
    2115       1     2219    5.479452050E-04
    2116       1     2220    5.479452050E-04
    2117       1     2221    5.479452050E-04
    2118       1     2224    5.479452050E-04
    2119       1     2225    5.479452050E-04
    2120       1     2226    5.479452050E-04
    2121       1     2227    5.479452050E-04
    2122       1     2228    5.479452050E-04
    2123       1     2229    5.479452050E-04
    2124       1     2230    5.479452050E-04
    2125       1     2231    5.479452050E-04
    2126       1     2232    5.479452050E-04
    2127       1     2233    5.479452050E-04
    2128       1     2234    5.479452050E-04
    2129       1     2235    5.479452050E-04
    2130       1     2236    5.479452050E-04
    2131       1     2237    5.479452050E-04
    2132       1     2238    5.479452050E-04
    2133       1     2239    5.479452050E-04
    2134       1     2240    5.479452050E-04
    2135       1     2241    5.479452050E-04
    2136       1     2242    5.479452050E-04
    2137       1     2243    5.479452050E-04
    2138       1     2244    5.479452050E-04
    2139       1     2245    5.479452050E-04
    2140       1     2246    5.479452050E-04
    2141       1     2247    5.479452050E-04
    2142       1     2248    5.479452050E-04
    2143       1     2249    5.479452050E-04
    2144       1     2250    5.479452050E-04
    2145       1     2251    5.479452050E-04
    2146       1     2252    5.479452050E-04
    2147       1     2253    5.479452050E-04
    2148       1     2254    5.479452050E-04
    2149       1     2255    5.479452050E-04
    2150       1     2256    5.479452050E-04
    2151       1     2257    5.479452050E-04
    2152       1     2258    5.479452050E-04
    2153       1     2259    5.479452050E-04
    2154       1     2260    5.479452050E-04
    2155       1     2261    5.479452050E-04
    2156       1     2262    5.479452050E-04
    2157       1     2263    5.479452050E-04
    2158       1     2264    5.479452050E-04
    2159       1     2265    5.479452050E-04
    2160       1     2266    5.479452050E-04
    2161       1     2267    5.479452050E-04
    2162       1     2268    5.479452050E-04
    2163       1     2269    5.479452050E-04
    2164       1     2270    5.479452050E-04
    2165       1     2271    5.479452050E-04
    2166       1     2272    5.479452050E-04
    2167       1     2273    5.479452050E-04
    2168       1     2274    5.479452050E-04
    2169       1     2275    5.479452050E-04
    2170       1     2276    5.479452050E-04
    2171       1     2277    5.479452050E-04
    2172       1     2278    5.479452050E-04
    2173       1     2279    5.479452050E-04
    2174       1     2280    5.479452050E-04
    2175       1     2281    5.479452050E-04
    2176       1     2282    5.479452050E-04
    2177       1     2283    5.479452050E-04
    2178       1     2284    5.479452050E-04
    2179       1     2285    5.479452050E-04
    2180       1     2286    5.479452050E-04
    2181       1     2287    5.479452050E-04
    2182       1     2288    5.479452050E-04
    2183       1     2289    5.479452050E-04
    2184       1     2290    5.479452050E-04
    2185       1     2291    5.479452050E-04
    2186       1     2292    5.479452050E-04
    2187       1     2293    5.479452050E-04
    2188       1     2294    5.479452050E-04
    2189       1     2295    5.479452050E-04
    2190       1     2296    5.479452050E-04
    2191       1     2297    5.479452050E-04
    2192       1     2298    5.479452050E-04
    2193       1     2299    5.479452050E-04
    2194       1     2300    5.479452050E-04
    2195       1     2301    5.479452050E-04
    2196       1     2302    5.479452050E-04
    2197       1     2303    5.479452050E-04
    2198       1     2304    5.479452050E-04
    2199       1     2305    5.479452050E-04
    2200       1     2306    5.479452050E-04
    2201       1     2307    5.479452050E-04
    2202       1     2308    5.479452050E-04
    2203       1     2309    5.479452050E-04
    2204       1     2312    5.479452050E-04
    2205       1     2313    5.479452050E-04
    2206       1     2314    5.479452050E-04
    2207       1     2315    5.479452050E-04
    2208       1     2316    5.479452050E-04
    2209       1     2317    5.479452050E-04
    2210       1     2318    5.479452050E-04
    2211       1     2319    5.479452050E-04
    2212       1     2320    5.479452050E-04
    2213       1     2321    5.479452050E-04
    2214       1     2322    5.479452050E-04
    2215       1     2323    5.479452050E-04
    2216       1     2324    5.479452050E-04
    2217       1     2325    5.479452050E-04
    2218       1     2326    5.479452050E-04
    2219       1     2327    5.479452050E-04
    2220       1     2328    5.479452050E-04
    2221       1     2329    5.479452050E-04
    2222       1     2330    5.479452050E-04
    2223       1     2331    5.479452050E-04
    2224       1     2332    5.479452050E-04
    2225       1     2333    5.479452050E-04
    2226       1     2334    5.479452050E-04
    2227       1     2335    5.479452050E-04
    2228       1     2336    5.479452050E-04
    2229       1     2337    5.479452050E-04
    2230       1     2338    5.479452050E-04
    2231       1     2339    5.479452050E-04
    2232       1     2340    5.479452050E-04
    2233       1     2341    5.479452050E-04
    2234       1     2342    5.479452050E-04
    2235       1     2343    5.479452050E-04
    2236       1     2344    5.479452050E-04
    2237       1     2345    5.479452050E-04
    2238       1     2346    5.479452050E-04
    2239       1     2347    5.479452050E-04
    2240       1     2348    5.479452050E-04
    2241       1     2349    5.479452050E-04
    2242       1     2350    5.479452050E-04
    2243       1     2351    5.479452050E-04
    2244       1     2352    5.479452050E-04
    2245       1     2353    5.479452050E-04
    2246       1     2354    5.479452050E-04
    2247       1     2355    5.479452050E-04
    2248       1     2356    5.479452050E-04
    2249       1     2357    5.479452050E-04
    2250       1     2358    5.479452050E-04
    2251       1     2359    5.479452050E-04
    2252       1     2360    5.479452050E-04
    2253       1     2361    5.479452050E-04
    2254       1     2362    5.479452050E-04
    2255       1     2363    5.479452050E-04
    2256       1     2364    5.479452050E-04
    2257       1     2365    5.479452050E-04
    2258       1     2366    5.479452050E-04
    2259       1     2367    5.479452050E-04
    2260       1     2368    5.479452050E-04
    2261       1     2369    5.479452050E-04
    2262       1     2370    5.479452050E-04
    2263       1     2371    5.479452050E-04
    2264       1     2372    5.479452050E-04
    2265       1     2373    5.479452050E-04
    2266       1     2374    5.479452050E-04
    2267       1     2375    5.479452050E-04
    2268       1     2376    5.479452050E-04
    2269       1     2377    5.479452050E-04
    2270       1     2378    5.479452050E-04
    2271       1     2379    5.479452050E-04
    2272       1     2380    5.479452050E-04
    2273       1     2381    5.479452050E-04
    2274       1     2382    5.479452050E-04
    2275       1     2383    5.479452050E-04
    2276       1     2384    5.479452050E-04
    2277       1     2385    5.479452050E-04
    2278       1     2386    5.479452050E-04
    2279       1     2387    5.479452050E-04
    2280       1     2388    5.479452050E-04
    2281       1     2389    5.479452050E-04
    2282       1     2390    5.479452050E-04
    2283       1     2391    5.479452050E-04
    2284       1     2392    5.479452050E-04
    2285       1     2393    5.479452050E-04
    2286       1     2396    5.479452050E-04
    2287       1     2397    5.479452050E-04
    2288       1     2398    5.479452050E-04
    2289       1     2399    5.479452050E-04
    2290       1     2400    5.479452050E-04
    2291       1     2401    5.479452050E-04
    2292       1     2402    5.479452050E-04
    2293       1     2403    5.479452050E-04
    2294       1     2404    5.479452050E-04
    2295       1     2405    5.479452050E-04
    2296       1     2406    5.479452050E-04
    2297       1     2407    5.479452050E-04
    2298       1     2408    5.479452050E-04
    2299       1     2409    5.479452050E-04
    2300       1     2410    5.479452050E-04
    2301       1     2411    5.479452050E-04
    2302       1     2412    5.479452050E-04
    2303       1     2413    5.479452050E-04
    2304       1     2414    5.479452050E-04
    2305       1     2415    5.479452050E-04
    2306       1     2416    5.479452050E-04
    2307       1     2417    5.479452050E-04
    2308       1     2418    5.479452050E-04
    2309       1     2419    5.479452050E-04
    2310       1     2420    5.479452050E-04
    2311       1     2421    5.479452050E-04
    2312       1     2422    5.479452050E-04
    2313       1     2423    5.479452050E-04
    2314       1     2424    5.479452050E-04
    2315       1     2425    5.479452050E-04
    2316       1     2426    5.479452050E-04
    2317       1     2427    5.479452050E-04
    2318       1     2428    5.479452050E-04
    2319       1     2429    5.479452050E-04
    2320       1     2430    5.479452050E-04
    2321       1     2431    5.479452050E-04
    2322       1     2432    5.479452050E-04
    2323       1     2433    5.479452050E-04
    2324       1     2434    5.479452050E-04
    2325       1     2435    5.479452050E-04
    2326       1     2436    5.479452050E-04
    2327       1     2437    5.479452050E-04
    2328       1     2438    5.479452050E-04
    2329       1     2439    5.479452050E-04
    2330       1     2440    5.479452050E-04
    2331       1     2441    5.479452050E-04
    2332       1     2442    5.479452050E-04
    2333       1     2443    5.479452050E-04
    2334       1     2444    5.479452050E-04
    2335       1     2445    5.479452050E-04
    2336       1     2446    5.479452050E-04
    2337       1     2447    5.479452050E-04
    2338       1     2448    5.479452050E-04
    2339       1     2449    5.479452050E-04
    2340       1     2450    5.479452050E-04
    2341       1     2451    5.479452050E-04
    2342       1     2452    5.479452050E-04
    2343       1     2453    5.479452050E-04
    2344       1     2454    5.479452050E-04
    2345       1     2455    5.479452050E-04
    2346       1     2456    5.479452050E-04
    2347       1     2457    5.479452050E-04
    2348       1     2458    5.479452050E-04
    2349       1     2459    5.479452050E-04
    2350       1     2460    5.479452050E-04
    2351       1     2461    5.479452050E-04
    2352       1     2462    5.479452050E-04
    2353       1     2463    5.479452050E-04
    2354       1     2464    5.479452050E-04
    2355       1     2465    5.479452050E-04
    2356       1     2466    5.479452050E-04
    2357       1     2467    5.479452050E-04
    2358       1     2468    5.479452050E-04
    2359       1     2469    5.479452050E-04
    2360       1     2470    5.479452050E-04
    2361       1     2471    5.479452050E-04
    2362       1     2472    5.479452050E-04
    2363       1     2473    5.479452050E-04
    2364       1     2474    5.479452050E-04
    2365       1     2475    5.479452050E-04
    2366       1     2476    5.479452050E-04
    2367       1     2477    5.479452050E-04
    2368       1     2478    5.479452050E-04
    2369       1     2479    5.479452050E-04
    2370       1     2482    5.479452050E-04
    2371       1     2483    5.479452050E-04
    2372       1     2484    5.479452050E-04
    2373       1     2485    5.479452050E-04
    2374       1     2486    5.479452050E-04
    2375       1     2487    5.479452050E-04
    2376       1     2488    5.479452050E-04
    2377       1     2489    5.479452050E-04
    2378       1     2490    5.479452050E-04
    2379       1     2491    5.479452050E-04
    2380       1     2492    5.479452050E-04
    2381       1     2493    5.479452050E-04
    2382       1     2494    5.479452050E-04
    2383       1     2495    5.479452050E-04
    2384       1     2496    5.479452050E-04
    2385       1     2497    5.479452050E-04
    2386       1     2498    5.479452050E-04
    2387       1     2499    5.479452050E-04
    2388       1     2500    5.479452050E-04
    2389       1     2501    5.479452050E-04
    2390       1     2502    5.479452050E-04
    2391       1     2503    5.479452050E-04
    2392       1     2504    5.479452050E-04
    2393       1     2505    5.479452050E-04
    2394       1     2506    5.479452050E-04
    2395       1     2507    5.479452050E-04
    2396       1     2508    5.479452050E-04
    2397       1     2509    5.479452050E-04
    2398       1     2510    5.479452050E-04
    2399       1     2511    5.479452050E-04
    2400       1     2512    5.479452050E-04
    2401       1     2513    5.479452050E-04
    2402       1     2514    5.479452050E-04
    2403       1     2515    5.479452050E-04
    2404       1     2516    5.479452050E-04
    2405       1     2517    5.479452050E-04
    2406       1     2518    5.479452050E-04
    2407       1     2519    5.479452050E-04
    2408       1     2520    5.479452050E-04
    2409       1     2521    5.479452050E-04
    2410       1     2522    5.479452050E-04
    2411       1     2523    5.479452050E-04
    2412       1     2524    5.479452050E-04
    2413       1     2525    5.479452050E-04
    2414       1     2526    5.479452050E-04
    2415       1     2527    5.479452050E-04
    2416       1     2528    5.479452050E-04
    2417       1     2529    5.479452050E-04
    2418       1     2530    5.479452050E-04
    2419       1     2531    5.479452050E-04
    2420       1     2532    5.479452050E-04
    2421       1     2533    5.479452050E-04
    2422       1     2534    5.479452050E-04
    2423       1     2535    5.479452050E-04
    2424       1     2536    5.479452050E-04
    2425       1     2537    5.479452050E-04
    2426       1     2538    5.479452050E-04
    2427       1     2539    5.479452050E-04
    2428       1     2540    5.479452050E-04
    2429       1     2541    5.479452050E-04
    2430       1     2542    5.479452050E-04
    2431       1     2543    5.479452050E-04
    2432       1     2544    5.479452050E-04
    2433       1     2545    5.479452050E-04
    2434       1     2546    5.479452050E-04
    2435       1     2547    5.479452050E-04
    2436       1     2548    5.479452050E-04
    2437       1     2549    5.479452050E-04
    2438       1     2550    5.479452050E-04
    2439       1     2551    5.479452050E-04
    2440       1     2552    5.479452050E-04
    2441       1     2553    5.479452050E-04
    2442       1     2554    5.479452050E-04
    2443       1     2555    5.479452050E-04
    2444       1     2556    5.479452050E-04
    2445       1     2557    5.479452050E-04
    2446       1     2558    5.479452050E-04
    2447       1     2559    5.479452050E-04
    2448       1     2560    5.479452050E-04
    2449       1     2561    5.479452050E-04
    2450       1     2562    5.479452050E-04
    2451       1     2563    5.479452050E-04
    2452       1     2564    5.479452050E-04
    2453       1     2567    5.479452050E-04
    2454       1     2568    5.479452050E-04
    2455       1     2569    5.479452050E-04
    2456       1     2570    5.479452050E-04
    2457       1     2571    5.479452050E-04
    2458       1     2572    5.479452050E-04
    2459       1     2573    5.479452050E-04
    2460       1     2574    5.479452050E-04
    2461       1     2575    5.479452050E-04
    2462       1     2576    5.479452050E-04
    2463       1     2577    5.479452050E-04
    2464       1     2578    5.479452050E-04
    2465       1     2579    5.479452050E-04
    2466       1     2580    5.479452050E-04
    2467       1     2581    5.479452050E-04
    2468       1     2582    5.479452050E-04
    2469       1     2583    5.479452050E-04
    2470       1     2584    5.479452050E-04
    2471       1     2585    5.479452050E-04
    2472       1     2586    5.479452050E-04
    2473       1     2587    5.479452050E-04
    2474       1     2588    5.479452050E-04
    2475       1     2589    5.479452050E-04
    2476       1     2590    5.479452050E-04
    2477       1     2591    5.479452050E-04
    2478       1     2592    5.479452050E-04
    2479       1     2593    5.479452050E-04
    2480       1     2594    5.479452050E-04
    2481       1     2595    5.479452050E-04
    2482       1     2596    5.479452050E-04
    2483       1     2597    5.479452050E-04
    2484       1     2598    5.479452050E-04
    2485       1     2599    5.479452050E-04
    2486       1     2600    5.479452050E-04
    2487       1     2601    5.479452050E-04
    2488       1     2602    5.479452050E-04
    2489       1     2603    5.479452050E-04
    2490       1     2604    5.479452050E-04
    2491       1     2605    5.479452050E-04
    2492       1     2606    5.479452050E-04
    2493       1     2607    5.479452050E-04
    2494       1     2608    5.479452050E-04
    2495       1     2609    5.479452050E-04
    2496       1     2610    5.479452050E-04
    2497       1     2611    5.479452050E-04
    2498       1     2612    5.479452050E-04
    2499       1     2613    5.479452050E-04
    2500       1     2614    5.479452050E-04
    2501       1     2615    5.479452050E-04
    2502       1     2616    5.479452050E-04
    2503       1     2617    5.479452050E-04
    2504       1     2618    5.479452050E-04
    2505       1     2619    5.479452050E-04
    2506       1     2620    5.479452050E-04
    2507       1     2621    5.479452050E-04
    2508       1     2622    5.479452050E-04
    2509       1     2623    5.479452050E-04
    2510       1     2624    5.479452050E-04
    2511       1     2625    5.479452050E-04
    2512       1     2626    5.479452050E-04
    2513       1     2627    5.479452050E-04
    2514       1     2628    5.479452050E-04
    2515       1     2629    5.479452050E-04
    2516       1     2630    5.479452050E-04
    2517       1     2631    5.479452050E-04
    2518       1     2632    5.479452050E-04
    2519       1     2633    5.479452050E-04
    2520       1     2634    5.479452050E-04
    2521       1     2635    5.479452050E-04
    2522       1     2636    5.479452050E-04
    2523       1     2637    5.479452050E-04
    2524       1     2638    5.479452050E-04
    2525       1     2639    5.479452050E-04
    2526       1     2640    5.479452050E-04
    2527       1     2641    5.479452050E-04
    2528       1     2642    5.479452050E-04
    2529       1     2643    5.479452050E-04
    2530       1     2644    5.479452050E-04
    2531       1     2645    5.479452050E-04
    2532       1     2646    5.479452050E-04
    2533       1     2647    5.479452050E-04
    2534       1     2648    5.479452050E-04
    2535       1     2649    5.479452050E-04
    2536       1     2650    5.479452050E-04
    2537       1     2651    5.479452050E-04
    2538       1     2652    5.479452050E-04
    2539       1     2653    5.479452050E-04
    2540       1     2654    5.479452050E-04
    2541       1     2655    5.479452050E-04
    2542       1     2656    5.479452050E-04
    2543       1     2657    5.479452050E-04
    2544       1     2658    5.479452050E-04
    2545       1     2659    5.479452050E-04
    2546       1     2660    5.479452050E-04
    2547       1     2661    5.479452050E-04
    2548       1     2662    5.479452050E-04
    2549       1     2663    5.479452050E-04
    2550       1     2664    5.479452050E-04
    2551       1     2665    5.479452050E-04
    2552       1     2666    5.479452050E-04
    2553       1     2669    5.479452050E-04
    2554       1     2670    5.479452050E-04
    2555       1     2671    5.479452050E-04
    2556       1     2672    5.479452050E-04
    2557       1     2673    5.479452050E-04
    2558       1     2674    5.479452050E-04
    2559       1     2675    5.479452050E-04
    2560       1     2676    5.479452050E-04
    2561       1     2677    5.479452050E-04
    2562       1     2678    5.479452050E-04
    2563       1     2679    5.479452050E-04
    2564       1     2680    5.479452050E-04
    2565       1     2681    5.479452050E-04
    2566       1     2682    5.479452050E-04
    2567       1     2683    5.479452050E-04
    2568       1     2684    5.479452050E-04
    2569       1     2685    5.479452050E-04
    2570       1     2686    5.479452050E-04
    2571       1     2687    5.479452050E-04
    2572       1     2688    5.479452050E-04
    2573       1     2689    5.479452050E-04
    2574       1     2690    5.479452050E-04
    2575       1     2691    5.479452050E-04
    2576       1     2692    5.479452050E-04
    2577       1     2693    5.479452050E-04
    2578       1     2694    5.479452050E-04
    2579       1     2695    5.479452050E-04
    2580       1     2696    5.479452050E-04
    2581       1     2697    5.479452050E-04
    2582       1     2698    5.479452050E-04
    2583       1     2699    5.479452050E-04
    2584       1     2700    5.479452050E-04
    2585       1     2701    5.479452050E-04
    2586       1     2702    5.479452050E-04
    2587       1     2703    5.479452050E-04
    2588       1     2704    5.479452050E-04
    2589       1     2705    5.479452050E-04
    2590       1     2706    5.479452050E-04
    2591       1     2707    5.479452050E-04
    2592       1     2708    5.479452050E-04
    2593       1     2709    5.479452050E-04
    2594       1     2710    5.479452050E-04
    2595       1     2711    5.479452050E-04
    2596       1     2712    5.479452050E-04
    2597       1     2713    5.479452050E-04
    2598       1     2714    5.479452050E-04
    2599       1     2715    5.479452050E-04
    2600       1     2716    5.479452050E-04
    2601       1     2717    5.479452050E-04
    2602       1     2718    5.479452050E-04
    2603       1     2719    5.479452050E-04
    2604       1     2720    5.479452050E-04
    2605       1     2721    5.479452050E-04
    2606       1     2722    5.479452050E-04
    2607       1     2723    5.479452050E-04
    2608       1     2724    5.479452050E-04
    2609       1     2725    5.479452050E-04
    2610       1     2726    5.479452050E-04
    2611       1     2727    5.479452050E-04
    2612       1     2728    5.479452050E-04
    2613       1     2729    5.479452050E-04
    2614       1     2730    5.479452050E-04
    2615       1     2731    5.479452050E-04
    2616       1     2732    5.479452050E-04
    2617       1     2733    5.479452050E-04
    2618       1     2734    5.479452050E-04
    2619       1     2735    5.479452050E-04
    2620       1     2736    5.479452050E-04
    2621       1     2737    5.479452050E-04
    2622       1     2738    5.479452050E-04
    2623       1     2739    5.479452050E-04
    2624       1     2740    5.479452050E-04
    2625       1     2741    5.479452050E-04
    2626       1     2742    5.479452050E-04
    2627       1     2743    5.479452050E-04
    2628       1     2744    5.479452050E-04
    2629       1     2745    5.479452050E-04
    2630       1     2746    5.479452050E-04
    2631       1     2747    5.479452050E-04
    2632       1     2748    5.479452050E-04
    2633       1     2749    5.479452050E-04
    2634       1     2750    5.479452050E-04
    2635       1     2751    5.479452050E-04
    2636       1     2752    5.479452050E-04
    2637       1     2753    5.479452050E-04
    2638       1     2754    5.479452050E-04
    2639       1     2755    5.479452050E-04
    2640       1     2756    5.479452050E-04
    2641       1     2757    5.479452050E-04
    2642       1     2758    5.479452050E-04
    2643       1     2759    5.479452050E-04
    2644       1     2760    5.479452050E-04
    2645       1     2761    5.479452050E-04
    2646       1     2762    5.479452050E-04
    2647       1     2763    5.479452050E-04
    2648       1     2764    5.479452050E-04
    2649       1     2765    5.479452050E-04
    2650       1     2766    5.479452050E-04
    2651       1     2767    5.479452050E-04
    2652       1     2768    5.479452050E-04
    2653       1     2769    5.479452050E-04
    2654       1     2770    5.479452050E-04
    2655       1     2771    5.479452050E-04
    2656       1     2772    5.479452050E-04
    2657       1     2773    5.479452050E-04
    2658       1     2774    5.479452050E-04
    2659       1     2775    5.479452050E-04
    2660       1     2776    5.479452050E-04
    2661       1     2777    5.479452050E-04
    2662       1     2778    5.479452050E-04
    2663       1     2779    5.479452050E-04
    2664       1     2780    5.479452050E-04
    2665       1     2781    5.479452050E-04
    2666       1     2782    5.479452050E-04
    2667       1     2783    5.479452050E-04
    2668       1     2784    5.479452050E-04
    2669       1     2785    5.479452050E-04
    2670       1     2786    5.479452050E-04
    2671       1     2787    5.479452050E-04
    2672       1     2788    5.479452050E-04
    2673       1     2789    5.479452050E-04
    2674       1     2790    5.479452050E-04
    2675       1     2791    5.479452050E-04
    2676       1     2792    5.479452050E-04
    2677       1     2793    5.479452050E-04
    2678       1     2794    5.479452050E-04
    2679       1     2795    5.479452050E-04
    2680       1     2796    5.479452050E-04
    2681       1     2797    5.479452050E-04
    2682       1     2798    5.479452050E-04
    2683       1     2799    5.479452050E-04
    2684       1     2800    5.479452050E-04
    2685       1     2801    5.479452050E-04
    2686       1     2802    5.479452050E-04
    2687       1     2803    5.479452050E-04
    2688       1     2804    5.479452050E-04
    2689       1     2805    5.479452050E-04
    2690       1     2806    5.479452050E-04
    2691       1     2807    5.479452050E-04
    2692       1     2808    5.479452050E-04
    2693       1     2809    5.479452050E-04
    2694       1     2810    5.479452050E-04
    2695       1     2811    5.479452050E-04
    2696       1     2812    5.479452050E-04
    2697       1     2813    5.479452050E-04
    2698       1     2814    5.479452050E-04
    2699       1     2815    5.479452050E-04
    2700       1     2816    5.479452050E-04
    2701       1     2817    5.479452050E-04
    2702       1     2818    5.479452050E-04
    2703       1     2819    5.479452050E-04
    2704       1     2820    5.479452050E-04
    2705       1     2821    5.479452050E-04
    2706       1     2824    5.479452050E-04
    2707       1     2825    5.479452050E-04
    2708       1     2826    5.479452050E-04
    2709       1     2827    5.479452050E-04
    2710       1     2828    5.479452050E-04
    2711       1     2829    5.479452050E-04
    2712       1     2830    5.479452050E-04
    2713       1     2831    5.479452050E-04
    2714       1     2832    5.479452050E-04
    2715       1     2833    5.479452050E-04
    2716       1     2834    5.479452050E-04
    2717       1     2835    5.479452050E-04
    2718       1     2836    5.479452050E-04
    2719       1     2837    5.479452050E-04
    2720       1     2838    5.479452050E-04
    2721       1     2839    5.479452050E-04
    2722       1     2840    5.479452050E-04
    2723       1     2841    5.479452050E-04
    2724       1     2842    5.479452050E-04
    2725       1     2843    5.479452050E-04
    2726       1     2844    5.479452050E-04
    2727       1     2845    5.479452050E-04
    2728       1     2846    5.479452050E-04
    2729       1     2847    5.479452050E-04
    2730       1     2848    5.479452050E-04
    2731       1     2849    5.479452050E-04
    2732       1     2850    5.479452050E-04
    2733       1     2851    5.479452050E-04
    2734       1     2852    5.479452050E-04
    2735       1     2853    5.479452050E-04
    2736       1     2854    5.479452050E-04
    2737       1     2855    5.479452050E-04
    2738       1     2856    5.479452050E-04
    2739       1     2857    5.479452050E-04
    2740       1     2858    5.479452050E-04
    2741       1     2859    5.479452050E-04
    2742       1     2860    5.479452050E-04
    2743       1     2861    5.479452050E-04
    2744       1     2862    5.479452050E-04
    2745       1     2863    5.479452050E-04
    2746       1     2864    5.479452050E-04
    2747       1     2865    5.479452050E-04
    2748       1     2866    5.479452050E-04
    2749       1     2867    5.479452050E-04
    2750       1     2868    5.479452050E-04
    2751       1     2869    5.479452050E-04
    2752       1     2870    5.479452050E-04
    2753       1     2871    5.479452050E-04
    2754       1     2872    5.479452050E-04
    2755       1     2873    5.479452050E-04
    2756       1     2874    5.479452050E-04
    2757       1     2875    5.479452050E-04
    2758       1     2876    5.479452050E-04
    2759       1     2877    5.479452050E-04
    2760       1     2878    5.479452050E-04
    2761       1     2879    5.479452050E-04
    2762       1     2880    5.479452050E-04
    2763       1     2881    5.479452050E-04
    2764       1     2882    5.479452050E-04
    2765       1     2883    5.479452050E-04
    2766       1     2884    5.479452050E-04
    2767       1     2885    5.479452050E-04
    2768       1     2886    5.479452050E-04
    2769       1     2887    5.479452050E-04
    2770       1     2888    5.479452050E-04
    2771       1     2889    5.479452050E-04
    2772       1     2890    5.479452050E-04
    2773       1     2891    5.479452050E-04
    2774       1     2892    5.479452050E-04
    2775       1     2893    5.479452050E-04
    2776       1     2894    5.479452050E-04
    2777       1     2895    5.479452050E-04
    2778       1     2896    5.479452050E-04
    2779       1     2897    5.479452050E-04
    2780       1     2898    5.479452050E-04
    2781       1     2899    5.479452050E-04
    2782       1     2900    5.479452050E-04
    2783       1     2901    5.479452050E-04
    2784       1     2902    5.479452050E-04
    2785       1     2903    5.479452050E-04
    2786       1     2904    5.479452050E-04
    2787       1     2905    5.479452050E-04
    2788       1     2906    5.479452050E-04
    2789       1     2907    5.479452050E-04
    2790       1     2908    5.479452050E-04
    2791       1     2909    5.479452050E-04
    2792       1     2910    5.479452050E-04
    2793       1     2911    5.479452050E-04
    2794       1     2912    5.479452050E-04
    2795       1     2913    5.479452050E-04
    2796       1     2914    5.479452050E-04
    2797       1     2915    5.479452050E-04
    2798       1     2916    5.479452050E-04
    2799       1     2917    5.479452050E-04
    2800       1     2918    5.479452050E-04
    2801       1     2919    5.479452050E-04
    2802       1     2920    5.479452050E-04
    2803       1     2921    5.479452050E-04
    2804       1     2922    5.479452050E-04
    2805       1     2923    5.479452050E-04
    2806       1     2924    5.479452050E-04
    2807       1     2925    5.479452050E-04
    2808       1     2926    5.479452050E-04
    2809       1     2927    5.479452050E-04
    2810       1     2928    5.479452050E-04
    2811       1     2929    5.479452050E-04
    2812       1     2930    5.479452050E-04
    2813       1     2931    5.479452050E-04
    2814       1     2932    5.479452050E-04
    2815       1     2933    5.479452050E-04
    2816       1     2934    5.479452050E-04
    2817       1     2935    5.479452050E-04
    2818       1     2936    5.479452050E-04
    2819       1     2937    5.479452050E-04
    2820       1     2938    5.479452050E-04
    2821       1     2939    5.479452050E-04
    2822       1     2940    5.479452050E-04
    2823       1     2941    5.479452050E-04
    2824       1     2942    5.479452050E-04
    2825       1     2943    5.479452050E-04
    2826       1     2944    5.479452050E-04
    2827       1     2945    5.479452050E-04
    2828       1     2946    5.479452050E-04
    2829       1     2947    5.479452050E-04
    2830       1     2948    5.479452050E-04
    2831       1     2949    5.479452050E-04
    2832       1     2950    5.479452050E-04
    2833       1     2951    5.479452050E-04
    2834       1     2952    5.479452050E-04
    2835       1     2953    5.479452050E-04
    2836       1     2954    5.479452050E-04
    2837       1     2955    5.479452050E-04
    2838       1     2956    5.479452050E-04
    2839       1     2957    5.479452050E-04
    2840       1     2958    5.479452050E-04
    2841       1     2959    5.479452050E-04
    2842       1     2960    5.479452050E-04
    2843       1     2961    5.479452050E-04
    2844       1     2962    5.479452050E-04
    2845       1     2963    5.479452050E-04
    2846       1     2964    5.479452050E-04
    2847       1     2965    5.479452050E-04
    2848       1     2966    5.479452050E-04
    2849       1     2967    5.479452050E-04
    2850       1     2968    5.479452050E-04
    2851       1     2969    5.479452050E-04
    2852       1     2970    5.479452050E-04
    2853       1     2971    5.479452050E-04
    2854       1     2972    5.479452050E-04
    2855       1     2973    5.479452050E-04
    2856       1     2974    5.479452050E-04
    2857       1     2975    5.479452050E-04
    2858       1     2976    5.479452050E-04
    2859       1     2977    5.479452050E-04
    2860       1     2978    5.479452050E-04
    2861       1     2981    5.479452050E-04
    2862       1     2982    5.479452050E-04
    2863       1     2983    5.479452050E-04
    2864       1     2984    5.479452050E-04
    2865       1     2985    5.479452050E-04
    2866       1     2986    5.479452050E-04
    2867       1     2987    5.479452050E-04
    2868       1     2988    5.479452050E-04
    2869       1     2989    5.479452050E-04
    2870       1     2990    5.479452050E-04
    2871       1     2991    5.479452050E-04
    2872       1     2992    5.479452050E-04
    2873       1     2993    5.479452050E-04
    2874       1     2994    5.479452050E-04
    2875       1     2995    5.479452050E-04
    2876       1     2996    5.479452050E-04
    2877       1     2997    5.479452050E-04
    2878       1     2998    5.479452050E-04
    2879       1     2999    5.479452050E-04
    2880       1     3000    5.479452050E-04
    2881       1     3001    5.479452050E-04
    2882       1     3002    5.479452050E-04
    2883       1     3003    5.479452050E-04
    2884       1     3004    5.479452050E-04
    2885       1     3005    5.479452050E-04
    2886       1     3006    5.479452050E-04
    2887       1     3007    5.479452050E-04
    2888       1     3008    5.479452050E-04
    2889       1     3009    5.479452050E-04
    2890       1     3010    5.479452050E-04
    2891       1     3011    5.479452050E-04
    2892       1     3012    5.479452050E-04
    2893       1     3013    5.479452050E-04
    2894       1     3014    5.479452050E-04
    2895       1     3015    5.479452050E-04
    2896       1     3016    5.479452050E-04
    2897       1     3017    5.479452050E-04
    2898       1     3018    5.479452050E-04
    2899       1     3019    5.479452050E-04
    2900       1     3020    5.479452050E-04
    2901       1     3021    5.479452050E-04
    2902       1     3022    5.479452050E-04
    2903       1     3023    5.479452050E-04
    2904       1     3024    5.479452050E-04
    2905       1     3025    5.479452050E-04
    2906       1     3026    5.479452050E-04
    2907       1     3027    5.479452050E-04
    2908       1     3028    5.479452050E-04
    2909       1     3029    5.479452050E-04
    2910       1     3030    5.479452050E-04
    2911       1     3031    5.479452050E-04
    2912       1     3032    5.479452050E-04
    2913       1     3033    5.479452050E-04
    2914       1     3034    5.479452050E-04
    2915       1     3035    5.479452050E-04
    2916       1     3036    5.479452050E-04
    2917       1     3037    5.479452050E-04
    2918       1     3038    5.479452050E-04
    2919       1     3039    5.479452050E-04
    2920       1     3040    5.479452050E-04
    2921       1     3041    5.479452050E-04
    2922       1     3042    5.479452050E-04
    2923       1     3043    5.479452050E-04
    2924       1     3044    5.479452050E-04
    2925       1     3045    5.479452050E-04
    2926       1     3046    5.479452050E-04
    2927       1     3047    5.479452050E-04
    2928       1     3048    5.479452050E-04
    2929       1     3049    5.479452050E-04
    2930       1     3050    5.479452050E-04
    2931       1     3051    5.479452050E-04
    2932       1     3052    5.479452050E-04
    2933       1     3053    5.479452050E-04
    2934       1     3054    5.479452050E-04
    2935       1     3055    5.479452050E-04
    2936       1     3056    5.479452050E-04
    2937       1     3057    5.479452050E-04
    2938       1     3058    5.479452050E-04
    2939       1     3059    5.479452050E-04
    2940       1     3060    5.479452050E-04
    2941       1     3061    5.479452050E-04
    2942       1     3062    5.479452050E-04
    2943       1     3063    5.479452050E-04
    2944       1     3064    5.479452050E-04
    2945       1     3065    5.479452050E-04
    2946       1     3066    5.479452050E-04
    2947       1     3067    5.479452050E-04
    2948       1     3068    5.479452050E-04
    2949       1     3069    5.479452050E-04
    2950       1     3070    5.479452050E-04
    2951       1     3071    5.479452050E-04
    2952       1     3072    5.479452050E-04
    2953       1     3073    5.479452050E-04
    2954       1     3074    5.479452050E-04
    2955       1     3075    5.479452050E-04
    2956       1     3076    5.479452050E-04
    2957       1     3077    5.479452050E-04
    2958       1     3078    5.479452050E-04
    2959       1     3079    5.479452050E-04
    2960       1     3080    5.479452050E-04
    2961       1     3081    5.479452050E-04
    2962       1     3082    5.479452050E-04
    2963       1     3083    5.479452050E-04
    2964       1     3084    5.479452050E-04
    2965       1     3085    5.479452050E-04
    2966       1     3086    5.479452050E-04
    2967       1     3087    5.479452050E-04
    2968       1     3088    5.479452050E-04
    2969       1     3089    5.479452050E-04
    2970       1     3090    5.479452050E-04
    2971       1     3091    5.479452050E-04
    2972       1     3092    5.479452050E-04
    2973       1     3093    5.479452050E-04
    2974       1     3094    5.479452050E-04
    2975       1     3095    5.479452050E-04
    2976       1     3098    5.479452050E-04
    2977       1     3099    5.479452050E-04
    2978       1     3100    5.479452050E-04
    2979       1     3101    5.479452050E-04
    2980       1     3102    5.479452050E-04
    2981       1     3103    5.479452050E-04
    2982       1     3104    5.479452050E-04
    2983       1     3105    5.479452050E-04
    2984       1     3106    5.479452050E-04
    2985       1     3107    5.479452050E-04
    2986       1     3108    5.479452050E-04
    2987       1     3109    5.479452050E-04
    2988       1     3110    5.479452050E-04
    2989       1     3111    5.479452050E-04
    2990       1     3112    5.479452050E-04
    2991       1     3113    5.479452050E-04
    2992       1     3114    5.479452050E-04
    2993       1     3115    5.479452050E-04
    2994       1     3116    5.479452050E-04
    2995       1     3117    5.479452050E-04
    2996       1     3118    5.479452050E-04
    2997       1     3119    5.479452050E-04
    2998       1     3120    5.479452050E-04
    2999       1     3121    5.479452050E-04
    3000       1     3122    5.479452050E-04
    3001       1     3123    5.479452050E-04
    3002       1     3124    5.479452050E-04
    3003       1     3125    5.479452050E-04
    3004       1     3126    5.479452050E-04
    3005       1     3127    5.479452050E-04
    3006       1     3128    5.479452050E-04
    3007       1     3129    5.479452050E-04
    3008       1     3130    5.479452050E-04
    3009       1     3131    5.479452050E-04
    3010       1     3132    5.479452050E-04
    3011       1     3133    5.479452050E-04
    3012       1     3134    5.479452050E-04
    3013       1     3135    5.479452050E-04
    3014       1     3136    5.479452050E-04
    3015       1     3137    5.479452050E-04
    3016       1     3138    5.479452050E-04
    3017       1     3139    5.479452050E-04
    3018       1     3140    5.479452050E-04
    3019       1     3141    5.479452050E-04
    3020       1     3142    5.479452050E-04
    3021       1     3143    5.479452050E-04
    3022       1     3144    5.479452050E-04
    3023       1     3145    5.479452050E-04
    3024       1     3146    5.479452050E-04
    3025       1     3147    5.479452050E-04
    3026       1     3148    5.479452050E-04
    3027       1     3149    5.479452050E-04
    3028       1     3150    5.479452050E-04
    3029       1     3151    5.479452050E-04
    3030       1     3152    5.479452050E-04
    3031       1     3153    5.479452050E-04
    3032       1     3154    5.479452050E-04
    3033       1     3155    5.479452050E-04
    3034       1     3156    5.479452050E-04
    3035       1     3157    5.479452050E-04
    3036       1     3158    5.479452050E-04
    3037       1     3159    5.479452050E-04
    3038       1     3160    5.479452050E-04
    3039       1     3161    5.479452050E-04
    3040       1     3162    5.479452050E-04
    3041       1     3163    5.479452050E-04
    3042       1     3164    5.479452050E-04
    3043       1     3165    5.479452050E-04
    3044       1     3166    5.479452050E-04
    3045       1     3167    5.479452050E-04
    3046       1     3168    5.479452050E-04
    3047       1     3169    5.479452050E-04
    3048       1     3170    5.479452050E-04
    3049       1     3171    5.479452050E-04
    3050       1     3172    5.479452050E-04
    3051       1     3173    5.479452050E-04
    3052       1     3174    5.479452050E-04
    3053       1     3175    5.479452050E-04
    3054       1     3176    5.479452050E-04
    3055       1     3177    5.479452050E-04
    3056       1     3178    5.479452050E-04
    3057       1     3179    5.479452050E-04
    3058       1     3180    5.479452050E-04
    3059       1     3181    5.479452050E-04
    3060       1     3182    5.479452050E-04
    3061       1     3183    5.479452050E-04
    3062       1     3184    5.479452050E-04
    3063       1     3185    5.479452050E-04
    3064       1     3186    5.479452050E-04
    3065       1     3187    5.479452050E-04
    3066       1     3188    5.479452050E-04
    3067       1     3189    5.479452050E-04
    3068       1     3190    5.479452050E-04
    3069       1     3191    5.479452050E-04
    3070       1     3192    5.479452050E-04
    3071       1     3193    5.479452050E-04
    3072       1     3194    5.479452050E-04
    3073       1     3195    5.479452050E-04
    3074       1     3196    5.479452050E-04
    3075       1     3197    5.479452050E-04
    3076       1     3198    5.479452050E-04
    3077       1     3199    5.479452050E-04
    3078       1     3200    5.479452050E-04
    3079       1     3201    5.479452050E-04
    3080       1     3202    5.479452050E-04
    3081       1     3203    5.479452050E-04
    3082       1     3204    5.479452050E-04
    3083       1     3205    5.479452050E-04
    3084       1     3206    5.479452050E-04
    3085       1     3207    5.479452050E-04
    3086       1     3208    5.479452050E-04
    3087       1     3212    5.479452050E-04
    3088       1     3213    5.479452050E-04
    3089       1     3214    5.479452050E-04
    3090       1     3215    5.479452050E-04
    3091       1     3216    5.479452050E-04
    3092       1     3217    5.479452050E-04
    3093       1     3218    5.479452050E-04
    3094       1     3219    5.479452050E-04
    3095       1     3220    5.479452050E-04
    3096       1     3221    5.479452050E-04
    3097       1     3222    5.479452050E-04
    3098       1     3223    5.479452050E-04
    3099       1     3224    5.479452050E-04
    3100       1     3225    5.479452050E-04
    3101       1     3226    5.479452050E-04
    3102       1     3227    5.479452050E-04
    3103       1     3228    5.479452050E-04
    3104       1     3229    5.479452050E-04
    3105       1     3230    5.479452050E-04
    3106       1     3231    5.479452050E-04
    3107       1     3232    5.479452050E-04
    3108       1     3233    5.479452050E-04
    3109       1     3234    5.479452050E-04
    3110       1     3235    5.479452050E-04
    3111       1     3236    5.479452050E-04
    3112       1     3237    5.479452050E-04
    3113       1     3238    5.479452050E-04
    3114       1     3239    5.479452050E-04
    3115       1     3240    5.479452050E-04
    3116       1     3241    5.479452050E-04
    3117       1     3242    5.479452050E-04
    3118       1     3243    5.479452050E-04
    3119       1     3244    5.479452050E-04
    3120       1     3245    5.479452050E-04
    3121       1     3246    5.479452050E-04
    3122       1     3247    5.479452050E-04
    3123       1     3248    5.479452050E-04
    3124       1     3249    5.479452050E-04
    3125       1     3250    5.479452050E-04
    3126       1     3251    5.479452050E-04
    3127       1     3252    5.479452050E-04
    3128       1     3253    5.479452050E-04
    3129       1     3254    5.479452050E-04
    3130       1     3255    5.479452050E-04
    3131       1     3256    5.479452050E-04
    3132       1     3257    5.479452050E-04
    3133       1     3258    5.479452050E-04
    3134       1     3259    5.479452050E-04
    3135       1     3260    5.479452050E-04
    3136       1     3261    5.479452050E-04
    3137       1     3262    5.479452050E-04
    3138       1     3263    5.479452050E-04
    3139       1     3264    5.479452050E-04
    3140       1     3265    5.479452050E-04
    3141       1     3266    5.479452050E-04
    3142       1     3267    5.479452050E-04
    3143       1     3268    5.479452050E-04
    3144       1     3269    5.479452050E-04
    3145       1     3270    5.479452050E-04
    3146       1     3271    5.479452050E-04
    3147       1     3272    5.479452050E-04
    3148       1     3273    5.479452050E-04
    3149       1     3274    5.479452050E-04
    3150       1     3275    5.479452050E-04
    3151       1     3276    5.479452050E-04
    3152       1     3277    5.479452050E-04
    3153       1     3278    5.479452050E-04
    3154       1     3279    5.479452050E-04
    3155       1     3280    5.479452050E-04
    3156       1     3281    5.479452050E-04
    3157       1     3282    5.479452050E-04
    3158       1     3285    5.479452050E-04
    3159       1     3286    5.479452050E-04
    3160       1     3287    5.479452050E-04
    3161       1     3288    5.479452050E-04
    3162       1     3289    5.479452050E-04
    3163       1     3290    5.479452050E-04
    3164       1     3291    5.479452050E-04
    3165       1     3292    5.479452050E-04
    3166       1     3293    5.479452050E-04
    3167       1     3294    5.479452050E-04
    3168       1     3295    5.479452050E-04
    3169       1     3296    5.479452050E-04
    3170       1     3297    5.479452050E-04
    3171       1     3298    5.479452050E-04
    3172       1     3299    5.479452050E-04
    3173       1     3300    5.479452050E-04
    3174       1     3301    5.479452050E-04
    3175       1     3302    5.479452050E-04
    3176       1     3303    5.479452050E-04
    3177       1     3304    5.479452050E-04
    3178       1     3305    5.479452050E-04
    3179       1     3306    5.479452050E-04
    3180       1     3307    5.479452050E-04
    3181       1     3308    5.479452050E-04
    3182       1     3309    5.479452050E-04
    3183       1     3310    5.479452050E-04
    3184       1     3311    5.479452050E-04
    3185       1     3312    5.479452050E-04
    3186       1     3313    5.479452050E-04
    3187       1     3314    5.479452050E-04
    3188       1     3315    5.479452050E-04
    3189       1     3316    5.479452050E-04
    3190       1     3317    5.479452050E-04
    3191       1     3318    5.479452050E-04
    3192       1     3319    5.479452050E-04
    3193       1     3320    5.479452050E-04
    3194       1     3321    5.479452050E-04
    3195       1     3322    5.479452050E-04
    3196       1     3323    5.479452050E-04
    3197       1     3324    5.479452050E-04
    3198       1     3325    5.479452050E-04
    3199       1     3326    5.479452050E-04
    3200       1     3327    5.479452050E-04
    3201       1     3328    5.479452050E-04
    3202       1     3329    5.479452050E-04
    3203       1     3330    5.479452050E-04
    3204       1     3331    5.479452050E-04
    3205       1     3332    5.479452050E-04
    3206       1     3333    5.479452050E-04
    3207       1     3334    5.479452050E-04
    3208       1     3335    5.479452050E-04
    3209       1     3336    5.479452050E-04
    3210       1     3337    5.479452050E-04
    3211       1     3338    5.479452050E-04
    3212       1     3339    5.479452050E-04
    3213       1     3340    5.479452050E-04
    3214       1     3341    5.479452050E-04
    3215       1     3342    5.479452050E-04
    3216       1     3343    5.479452050E-04
    3217       1     3344    5.479452050E-04
    3218       1     3345    5.479452050E-04
    3219       1     3346    5.479452050E-04
    3220       1     3347    5.479452050E-04
    3221       1     3348    5.479452050E-04
    3222       1     3349    5.479452050E-04
    3223       1     3350    5.479452050E-04
    3224       1     3351    5.479452050E-04
    3225       1     3354    5.479452050E-04
    3226       1     3355    5.479452050E-04
    3227       1     3356    5.479452050E-04
    3228       1     3357    5.479452050E-04
    3229       1     3358    5.479452050E-04
    3230       1     3359    5.479452050E-04
    3231       1     3360    5.479452050E-04
    3232       1     3361    5.479452050E-04
    3233       1     3362    5.479452050E-04
    3234       1     3363    5.479452050E-04
    3235       1     3364    5.479452050E-04
    3236       1     3365    5.479452050E-04
    3237       1     3366    5.479452050E-04
    3238       1     3367    5.479452050E-04
    3239       1     3368    5.479452050E-04
    3240       1     3369    5.479452050E-04
    3241       1     3370    5.479452050E-04
    3242       1     3371    5.479452050E-04
    3243       1     3372    5.479452050E-04
    3244       1     3373    5.479452050E-04
    3245       1     3374    5.479452050E-04
    3246       1     3375    5.479452050E-04
    3247       1     3376    5.479452050E-04
    3248       1     3377    5.479452050E-04
    3249       1     3378    5.479452050E-04
    3250       1     3379    5.479452050E-04
    3251       1     3380    5.479452050E-04
    3252       1     3381    5.479452050E-04
    3253       1     3382    5.479452050E-04
    3254       1     3383    5.479452050E-04
    3255       1     3384    5.479452050E-04
    3256       1     3385    5.479452050E-04
    3257       1     3386    5.479452050E-04
    3258       1     3387    5.479452050E-04
    3259       1     3388    5.479452050E-04
    3260       1     3389    5.479452050E-04
    3261       1     3390    5.479452050E-04
    3262       1     3391    5.479452050E-04
    3263       1     3392    5.479452050E-04
    3264       1     3393    5.479452050E-04
    3265       1     3394    5.479452050E-04
    3266       1     3395    5.479452050E-04
    3267       1     3396    5.479452050E-04
    3268       1     3397    5.479452050E-04
    3269       1     3398    5.479452050E-04
    3270       1     3399    5.479452050E-04
    3271       1     3400    5.479452050E-04
    3272       1     3401    5.479452050E-04
    3273       1     3402    5.479452050E-04
    3274       1     3403    5.479452050E-04
    3275       1     3404    5.479452050E-04
    3276       1     3405    5.479452050E-04
    3277       1     3406    5.479452050E-04
    3278       1     3407    5.479452050E-04
    3279       1     3408    5.479452050E-04
    3280       1     3409    5.479452050E-04
    3281       1     3410    5.479452050E-04
    3282       1     3411    5.479452050E-04
    3283       1     3412    5.479452050E-04
    3284       1     3413    5.479452050E-04
    3285       1     3414    5.479452050E-04
    3286       1     3415    5.479452050E-04
    3287       1     3416    5.479452050E-04
    3288       1     3417    5.479452050E-04
    3289       1     3418    5.479452050E-04
    3290       1     3419    5.479452050E-04
    3291       1     3420    5.479452050E-04
    3292       1     3421    5.479452050E-04
    3293       1     3422    5.479452050E-04
    3294       1     3423    5.479452050E-04
    3295       1     3424    5.479452050E-04
    3296       1     3425    5.479452050E-04
    3297       1     3426    5.479452050E-04
    3298       1     3427    5.479452050E-04
    3299       1     3428    5.479452050E-04
    3300       1     3429    5.479452050E-04
    3301       1     3430    5.479452050E-04
    3302       1     3431    5.479452050E-04
    3303       1     3434    5.479452050E-04
    3304       1     3435    5.479452050E-04
    3305       1     3436    5.479452050E-04
    3306       1     3437    5.479452050E-04
    3307       1     3438    5.479452050E-04
    3308       1     3439    5.479452050E-04
    3309       1     3440    5.479452050E-04
    3310       1     3441    5.479452050E-04
    3311       1     3442    5.479452050E-04
    3312       1     3443    5.479452050E-04
    3313       1     3444    5.479452050E-04
    3314       1     3445    5.479452050E-04
    3315       1     3446    5.479452050E-04
    3316       1     3447    5.479452050E-04
    3317       1     3448    5.479452050E-04
    3318       1     3449    5.479452050E-04
    3319       1     3450    5.479452050E-04
    3320       1     3451    5.479452050E-04
    3321       1     3452    5.479452050E-04
    3322       1     3453    5.479452050E-04
    3323       1     3454    5.479452050E-04
    3324       1     3455    5.479452050E-04
    3325       1     3456    5.479452050E-04
    3326       1     3457    5.479452050E-04
    3327       1     3458    5.479452050E-04
    3328       1     3459    5.479452050E-04
    3329       1     3460    5.479452050E-04
    3330       1     3461    5.479452050E-04
    3331       1     3462    5.479452050E-04
    3332       1     3463    5.479452050E-04
    3333       1     3464    5.479452050E-04
    3334       1     3465    5.479452050E-04
    3335       1     3466    5.479452050E-04
    3336       1     3467    5.479452050E-04
    3337       1     3468    5.479452050E-04
    3338       1     3469    5.479452050E-04
    3339       1     3470    5.479452050E-04
    3340       1     3471    5.479452050E-04
    3341       1     3472    5.479452050E-04
    3342       1     3473    5.479452050E-04
    3343       1     3474    5.479452050E-04
    3344       1     3475    5.479452050E-04
    3345       1     3476    5.479452050E-04
    3346       1     3477    5.479452050E-04
    3347       1     3478    5.479452050E-04
    3348       1     3479    5.479452050E-04
    3349       1     3480    5.479452050E-04
    3350       1     3481    5.479452050E-04
    3351       1     3482    5.479452050E-04
    3352       1     3483    5.479452050E-04
    3353       1     3484    5.479452050E-04
    3354       1     3485    5.479452050E-04
    3355       1     3486    5.479452050E-04
    3356       1     3487    5.479452050E-04
    3357       1     3488    5.479452050E-04
    3358       1     3489    5.479452050E-04
    3359       1     3490    5.479452050E-04
    3360       1     3491    5.479452050E-04
    3361       1     3492    5.479452050E-04
    3362       1     3493    5.479452050E-04
    3363       1     3494    5.479452050E-04
    3364       1     3495    5.479452050E-04
    3365       1     3496    5.479452050E-04
    3366       1     3497    5.479452050E-04
    3367       1     3498    5.479452050E-04
    3368       1     3499    5.479452050E-04
    3369       1     3500    5.479452050E-04
    3370       1     3501    5.479452050E-04
    3371       1     3502    5.479452050E-04
    3372       1     3505    5.479452050E-04
    3373       1     3506    5.479452050E-04
    3374       1     3507    5.479452050E-04
    3375       1     3508    5.479452050E-04
    3376       1     3509    5.479452050E-04
    3377       1     3510    5.479452050E-04
    3378       1     3511    5.479452050E-04
    3379       1     3512    5.479452050E-04
    3380       1     3513    5.479452050E-04
    3381       1     3514    5.479452050E-04
    3382       1     3515    5.479452050E-04
    3383       1     3516    5.479452050E-04
    3384       1     3517    5.479452050E-04
    3385       1     3518    5.479452050E-04
    3386       1     3519    5.479452050E-04
    3387       1     3520    5.479452050E-04
    3388       1     3521    5.479452050E-04
    3389       1     3522    5.479452050E-04
    3390       1     3523    5.479452050E-04
    3391       1     3524    5.479452050E-04
    3392       1     3525    5.479452050E-04
    3393       1     3526    5.479452050E-04
    3394       1     3527    5.479452050E-04
    3395       1     3528    5.479452050E-04
    3396       1     3529    5.479452050E-04
    3397       1     3530    5.479452050E-04
    3398       1     3531    5.479452050E-04
    3399       1     3532    5.479452050E-04
    3400       1     3533    5.479452050E-04
    3401       1     3534    5.479452050E-04
    3402       1     3535    5.479452050E-04
    3403       1     3536    5.479452050E-04
    3404       1     3537    5.479452050E-04
    3405       1     3538    5.479452050E-04
    3406       1     3539    5.479452050E-04
    3407       1     3540    5.479452050E-04
    3408       1     3541    5.479452050E-04
    3409       1     3542    5.479452050E-04
    3410       1     3543    5.479452050E-04
    3411       1     3544    5.479452050E-04
    3412       1     3545    5.479452050E-04
    3413       1     3546    5.479452050E-04
    3414       1     3547    5.479452050E-04
    3415       1     3548    5.479452050E-04
    3416       1     3549    5.479452050E-04
    3417       1     3550    5.479452050E-04
    3418       1     3551    5.479452050E-04
    3419       1     3552    5.479452050E-04
    3420       1     3553    5.479452050E-04
    3421       1     3554    5.479452050E-04
    3422       1     3555    5.479452050E-04
    3423       1     3556    5.479452050E-04
    3424       1     3557    5.479452050E-04
    3425       1     3558    5.479452050E-04
    3426       1     3559    5.479452050E-04
    3427       1     3560    5.479452050E-04
    3428       1     3561    5.479452050E-04
    3429       1     3562    5.479452050E-04
    3430       1     3563    5.479452050E-04
    3431       1     3564    5.479452050E-04
    3432       1     3565    5.479452050E-04
    3433       1     3566    5.479452050E-04
    3434       1     3567    5.479452050E-04
    3435       1     3570    5.479452050E-04
    3436       1     3571    5.479452050E-04
    3437       1     3572    5.479452050E-04
    3438       1     3573    5.479452050E-04
    3439       1     3574    5.479452050E-04
    3440       1     3575    5.479452050E-04
    3441       1     3576    5.479452050E-04
    3442       1     3577    5.479452050E-04
    3443       1     3578    5.479452050E-04
    3444       1     3579    5.479452050E-04
    3445       1     3580    5.479452050E-04
    3446       1     3581    5.479452050E-04
    3447       1     3582    5.479452050E-04
    3448       1     3583    5.479452050E-04
    3449       1     3584    5.479452050E-04
    3450       1     3585    5.479452050E-04
    3451       1     3586    5.479452050E-04
    3452       1     3587    5.479452050E-04
    3453       1     3588    5.479452050E-04
    3454       1     3589    5.479452050E-04
    3455       1     3590    5.479452050E-04
    3456       1     3591    5.479452050E-04
    3457       1     3592    5.479452050E-04
    3458       1     3593    5.479452050E-04
    3459       1     3594    5.479452050E-04
    3460       1     3595    5.479452050E-04
    3461       1     3596    5.479452050E-04
    3462       1     3597    5.479452050E-04
    3463       1     3598    5.479452050E-04
    3464       1     3599    5.479452050E-04
    3465       1     3600    5.479452050E-04
    3466       1     3601    5.479452050E-04
    3467       1     3602    5.479452050E-04
    3468       1     3603    5.479452050E-04
    3469       1     3604    5.479452050E-04
    3470       1     3605    5.479452050E-04
    3471       1     3606    5.479452050E-04
    3472       1     3607    5.479452050E-04
    3473       1     3608    5.479452050E-04
    3474       1     3609    5.479452050E-04
    3475       1     3610    5.479452050E-04
    3476       1     3611    5.479452050E-04
    3477       1     3612    5.479452050E-04
    3478       1     3613    5.479452050E-04
    3479       1     3614    5.479452050E-04
    3480       1     3615    5.479452050E-04
    3481       1     3616    5.479452050E-04
    3482       1     3617    5.479452050E-04
    3483       1     3620    5.479452050E-04
    3484       1     3621    5.479452050E-04
    3485       1     3622    5.479452050E-04
    3486       1     3623    5.479452050E-04
    3487       1     3624    5.479452050E-04
    3488       1     3625    5.479452050E-04
    3489       1     3626    5.479452050E-04
    3490       1     3627    5.479452050E-04
    3491       1     3628    5.479452050E-04
    3492       1     3629    5.479452050E-04
    3493       1     3630    5.479452050E-04
    3494       1     3631    5.479452050E-04
    3495       1     3632    5.479452050E-04
    3496       1     3633    5.479452050E-04
    3497       1     3634    5.479452050E-04
    3498       1     3635    5.479452050E-04
    3499       1     3636    5.479452050E-04
    3500       1     3637    5.479452050E-04
    3501       1     3638    5.479452050E-04
    3502       1     3639    5.479452050E-04
    3503       1     3640    5.479452050E-04
    3504       1     3641    5.479452050E-04
    3505       1     3642    5.479452050E-04
    3506       1     3643    5.479452050E-04
    3507       1     3644    5.479452050E-04
    3508       1     3645    5.479452050E-04
    3509       1     3646    5.479452050E-04
    3510       1     3647    5.479452050E-04
    3511       1     3648    5.479452050E-04
    3512       1     3649    5.479452050E-04
    3513       1     3650    5.479452050E-04
    3514       1     3651    5.479452050E-04
    3515       1     3652    5.479452050E-04
    3516       1     3653    5.479452050E-04
    3517       1     3654    5.479452050E-04
    3518       1     3655    5.479452050E-04
    3519       1     3656    5.479452050E-04
    3520       1     3657    5.479452050E-04
    3521       1     3658    5.479452050E-04
    3522       1     3659    5.479452050E-04
    3523       1     3660    5.479452050E-04
    3524       1     3661    5.479452050E-04
    3525       1     3662    5.479452050E-04
    3526       1     3667    5.479452050E-04
    3527       1     3668    5.479452050E-04
    3528       1     3669    5.479452050E-04
    3529       1     3670    5.479452050E-04
    3530       1     3671    5.479452050E-04
    3531       1     3672    5.479452050E-04
    3532       1     3673    5.479452050E-04
    3533       1     3674    5.479452050E-04
    3534       1     3675    5.479452050E-04
    3535       1     3676    5.479452050E-04
    3536       1     3677    5.479452050E-04
    3537       1     3678    5.479452050E-04
    3538       1     3679    5.479452050E-04
    3539       1     3680    5.479452050E-04
    3540       1     3681    5.479452050E-04
    3541       1     3682    5.479452050E-04
    3542       1     3683    5.479452050E-04
    3543       1     3684    5.479452050E-04
    3544       1     3685    5.479452050E-04
    3545       1     3686    5.479452050E-04
    3546       1     3687    5.479452050E-04
    3547       1     3688    5.479452050E-04
    3548       1     3689    5.479452050E-04
    3549       1     3690    5.479452050E-04
    3550       1     3691    5.479452050E-04
    3551       1     3692    5.479452050E-04
    3552       1     3693    5.479452050E-04
    3553       1     3694    5.479452050E-04
    3554       1     3695    5.479452050E-04
    3555       1     3696    5.479452050E-04
    3556       1     3697    5.479452050E-04
    3557       1     3698    5.479452050E-04
    3558       1     3699    5.479452050E-04
    3559       1     3700    5.479452050E-04
    3560       1     3701    5.479452050E-04
    3561       1     3702    5.479452050E-04
    3562       1     3710    5.479452050E-04
    3563       1     3711    5.479452050E-04
    3564       1     3712    5.479452050E-04
    3565       1     3713    5.479452050E-04
    3566       1     3714    5.479452050E-04
    3567       1     3715    5.479452050E-04
    3568       1     3716    5.479452050E-04
    3569       1     3717    5.479452050E-04
    3570       1     3718    5.479452050E-04
    3571       1     3719    5.479452050E-04
    3572       1     3720    5.479452050E-04
    3573       1     3721    5.479452050E-04
    3574       1     3722    5.479452050E-04
    3575       1     3723    5.479452050E-04
    3576       1     3724    5.479452050E-04
    3577       1     3725    5.479452050E-04
    3578       1     3746    5.479452050E-04
    3579       1     3747    5.479452050E-04
    3580       1     3748    5.479452050E-04
    3581       1     3749    5.479452050E-04
    3582       1     3750    5.479452050E-04
    3583       1     3751    5.479452050E-04
    3584       1     3752    5.479452050E-04
    3585       1     3753    5.479452050E-04
    3586       1     3754    5.479452050E-04
    3587       1     3755    5.479452050E-04
    3588       1     3756    5.479452050E-04
    3589       1     3757    5.479452050E-04
    3590       1     3758    5.479452050E-04
    3591       1     3759    5.479452050E-04
    3592       1     3761    5.479452050E-04
    3593       1     3762    5.479452050E-04
    3594       1     3763    5.479452050E-04
    3595       1     3764    5.479452050E-04
    3596       1     3765    5.479452050E-04
    3597       1     3766    5.479452050E-04
    3598       1     3767    5.479452050E-04
    3599       1     3768    5.479452050E-04
    3600       1     3769    5.479452050E-04
    3601       1     3770    5.479452050E-04
    3602       1     3771    5.479452050E-04
    3603       1     3772    5.479452050E-04
 -------------------------------------------



 REUSING SFRS FROM LAST STRESS PERIOD
 UBDSV1 SAVING           STO-SS ON UNIT   1019 AT TIME STEP      1, STRESS PERIOD      2
 UBDSV1 SAVING           STO-SY ON UNIT   1019 AT TIME STEP      1, STRESS PERIOD      2
 UBDSV1 SAVING     FLOW-JA-FACE ON UNIT   1019 AT TIME STEP      1, STRESS PERIOD      2
 UBDSV06 SAVING              GHB IN MODEL EXPERIMENTAL     PACKAGE EXPERIMENTAL    CONNECTED TO MODEL EXPERIMENTAL     PACKAGE GHB              ON UNIT   1019 AT TIME STEP      1, STRESS PERIOD      2
 UBDSV06 SAVING              RCH IN MODEL EXPERIMENTAL     PACKAGE EXPERIMENTAL    CONNECTED TO MODEL EXPERIMENTAL     PACKAGE RCH              ON UNIT   1019 AT TIME STEP      1, STRESS PERIOD      2
 UBDSV06 SAVING              SFR IN MODEL EXPERIMENTAL     PACKAGE EXPERIMENTAL    CONNECTED TO MODEL EXPERIMENTAL     PACKAGE SFR              ON UNIT   1019 AT TIME STEP      1, STRESS PERIOD      2
 UBDSV06 SAVING     FLOW-JA-FACE IN MODEL EXPERIMENTAL     PACKAGE SFR             CONNECTED TO MODEL EXPERIMENTAL     PACKAGE SFR              ON UNIT   1015 AT TIME STEP      1, STRESS PERIOD      2
 UBDSV06 SAVING              GWF IN MODEL EXPERIMENTAL     PACKAGE SFR             CONNECTED TO MODEL EXPERIMENTAL     PACKAGE EXPERIMENTAL     ON UNIT   1015 AT TIME STEP      1, STRESS PERIOD      2
 UBDSV06 SAVING         RAINFALL IN MODEL EXPERIMENTAL     PACKAGE SFR             CONNECTED TO MODEL EXPERIMENTAL     PACKAGE SFR              ON UNIT   1015 AT TIME STEP      1, STRESS PERIOD      2
 UBDSV06 SAVING      EVAPORATION IN MODEL EXPERIMENTAL     PACKAGE SFR             CONNECTED TO MODEL EXPERIMENTAL     PACKAGE SFR              ON UNIT   1015 AT TIME STEP      1, STRESS PERIOD      2
 UBDSV06 SAVING           RUNOFF IN MODEL EXPERIMENTAL     PACKAGE SFR             CONNECTED TO MODEL EXPERIMENTAL     PACKAGE SFR              ON UNIT   1015 AT TIME STEP      1, STRESS PERIOD      2
 UBDSV06 SAVING       EXT-INFLOW IN MODEL EXPERIMENTAL     PACKAGE SFR             CONNECTED TO MODEL EXPERIMENTAL     PACKAGE SFR              ON UNIT   1015 AT TIME STEP      1, STRESS PERIOD      2
 UBDSV06 SAVING      EXT-OUTFLOW IN MODEL EXPERIMENTAL     PACKAGE SFR             CONNECTED TO MODEL EXPERIMENTAL     PACKAGE SFR              ON UNIT   1015 AT TIME STEP      1, STRESS PERIOD      2
 UBDSV06 SAVING          STORAGE IN MODEL EXPERIMENTAL     PACKAGE SFR             CONNECTED TO MODEL EXPERIMENTAL     PACKAGE SFR              ON UNIT   1015 AT TIME STEP      1, STRESS PERIOD      2
1
  HEAD IN LAYER   1 AT END OF TIME STEP   1 IN STRESS PERIOD    2
  ---------------------------------------------------------------------------

                1               2               3               4               5               6               7               8               9              10
               11              12              13              14              15              16              17              18              19              20
               21              22              23              24              25              26              27              28              29              30
               31              32              33              34              35              36              37              38              39              40
               41              42              43              44              45              46              47              48              49              50
               51              52              53              54              55              56              57              58              59              60
               61              62              63              64              65              66              67              68              69              70
               71              72              73              74              75              76              77              78              79              80
               81              82              83              84              85              86              87              88              89              90
               91              92              93              94              95              96              97              98              99             100
              101             102             103             104             105             106             107             108             109             110
              111             112             113             114             115             116             117             118             119             120
              121             122             123             124             125             126             127             128             129             130
              131             132             133             134             135             136             137             138             139             140
              141             142             143             144             145             146             147             148             149             150
              151             152             153             154             155             156             157             158             159             160
              161             162             163             164             165             166             167             168             169             170
              171             172             173             174             175             176             177             178             179             180
              181             182             183             184             185             186             187             188             189             190
              191             192             193             194             195             196             197             198             199             200
              201             202             203             204             205             206             207             208             209             210
              211             212             213             214             215             216             217             218             219             220
              221             222             223             224             225             226             227             228             229             230
              231             232             233             234             235             236             237             238             239             240
              241             242             243             244             245             246             247             248             249             250
              251             252             253             254             255             256             257             258             259             260
              261             262             263             264             265             266             267             268             269             270
              271             272             273             274             275             276             277             278             279             280
              281             282             283             284             285             286             287             288             289             290
              291             292             293             294             295             296             297             298             299             300
              301             302             303             304             305             306             307             308             309             310
              311             312             313             314             315             316             317             318             319             320
              321             322             323             324             325             326             327             328             329             330
              331             332             333             334             335             336             337             338             339             340
              341             342             343             344             345             346             347             348             349             350
              351             352             353             354             355             356             357             358             359             360
              361             362             363             364             365             366             367             368             369             370
              371             372             373             374             375             376             377             378             379             380
              381             382             383             384             385             386             387             388             389             390
              391             392             393             394             395             396             397             398             399             400
              401             402             403             404             405             406             407             408             409             410
              411             412             413             414             415             416             417             418             419             420
              421             422             423             424             425             426             427             428             429             430
              431             432             433             434             435             436             437             438             439             440
              441             442             443             444             445             446             447             448             449             450
              451             452             453             454             455             456             457             458             459             460
              461             462             463             464             465             466             467             468             469             470
              471             472             473             474             475             476             477             478             479             480
              481             482             483             484             485             486             487             488             489             490
              491             492             493             494             495             496             497             498             499             500
              501             502             503             504             505             506             507             508             509             510
              511             512             513             514             515             516             517             518             519             520
              521             522             523             524             525             526             527             528             529             530
              531             532             533             534             535             536             537             538             539             540
              541             542             543             544             545             546             547             548             549             550
              551             552             553             554             555             556             557             558             559             560
              561             562             563             564             565             566             567             568             569             570
              571             572             573             574             575             576             577             578             579             580
              581             582             583             584             585             586             587             588             589             590
              591             592             593             594             595             596             597             598             599             600
              601             602             603             604             605             606             607             608             609             610
              611             612             613             614             615             616             617             618             619             620
              621             622             623             624             625             626             627             628             629             630
              631             632             633             634             635             636             637             638             639             640
              641             642             643             644             645             646             647             648             649             650
              651             652             653             654             655             656             657             658             659             660
              661             662             663             664             665             666             667             668             669             670
              671             672             673             674             675             676             677             678             679             680
              681             682             683             684             685             686             687             688             689             690
              691             692             693             694             695             696             697             698             699             700
              701             702             703             704             705             706             707             708             709             710
              711             712             713             714             715             716             717             718             719             720
              721             722             723             724             725             726             727             728             729             730
              731             732             733             734             735             736             737             738             739             740
              741             742             743             744             745             746             747             748             749             750
              751             752             753             754             755             756             757             758             759             760
              761             762             763             764             765             766             767             768             769             770
              771             772             773             774             775             776             777             778             779             780
              781             782             783             784             785             786             787             788             789             790
              791             792             793             794             795             796             797             798             799             800
              801             802             803             804             805             806             807             808             809             810
              811             812             813             814             815             816             817             818             819             820
              821             822             823             824             825             826             827             828             829             830
              831             832             833             834             835             836             837             838             839             840
              841             842             843             844             845             846             847             848             849             850
              851             852             853             854             855             856             857             858             859             860
              861             862             863             864             865             866             867             868             869             870
              871             872             873             874             875             876             877             878             879             880
              881             882             883             884             885             886             887             888             889             890
              891             892             893             894             895             896             897             898             899             900
              901             902             903             904             905             906             907             908             909             910
              911             912             913             914             915             916             917             918             919             920
              921             922             923             924             925             926             927             928             929             930
              931             932             933             934             935             936             937             938             939             940
              941             942             943             944             945             946             947             948             949             950
              951             952             953             954             955             956             957             958             959             960
              961             962             963             964             965             966             967             968             969             970
              971             972             973             974             975             976             977             978             979             980
              981             982             983             984             985             986             987             988             989             990
              991             992             993             994             995             996             997             998             999            1000
             1001            1002            1003            1004            1005            1006            1007            1008            1009            1010
             1011            1012            1013            1014            1015            1016            1017            1018            1019            1020
             1021            1022            1023            1024            1025            1026            1027            1028            1029            1030
             1031            1032            1033            1034            1035            1036            1037            1038            1039            1040
             1041            1042            1043            1044            1045            1046            1047            1048            1049            1050
             1051            1052            1053            1054            1055            1056            1057            1058            1059            1060
             1061            1062            1063            1064            1065            1066            1067            1068            1069            1070
             1071            1072            1073            1074            1075            1076            1077            1078            1079            1080
             1081            1082            1083            1084            1085            1086            1087            1088            1089            1090
             1091            1092            1093            1094            1095            1096            1097            1098            1099            1100
             1101            1102            1103            1104            1105            1106            1107            1108            1109            1110
             1111            1112            1113            1114            1115            1116            1117            1118            1119            1120
             1121            1122            1123            1124            1125            1126            1127            1128            1129            1130
             1131            1132            1133            1134            1135            1136            1137            1138            1139            1140
             1141            1142            1143            1144            1145            1146            1147            1148            1149            1150
             1151            1152            1153            1154            1155            1156            1157            1158            1159            1160
             1161            1162            1163            1164            1165            1166            1167            1168            1169            1170
             1171            1172            1173            1174            1175            1176            1177            1178            1179            1180
             1181            1182            1183            1184            1185            1186            1187            1188            1189            1190
             1191            1192            1193            1194            1195            1196            1197            1198            1199            1200
             1201            1202            1203            1204            1205            1206            1207            1208            1209            1210
             1211            1212            1213            1214            1215            1216            1217            1218            1219            1220
             1221            1222            1223            1224            1225            1226            1227            1228            1229            1230
             1231            1232            1233            1234            1235            1236            1237            1238            1239            1240
             1241            1242            1243            1244            1245            1246            1247            1248            1249            1250
             1251            1252            1253            1254            1255            1256            1257            1258            1259            1260
             1261            1262            1263            1264            1265            1266            1267            1268            1269            1270
             1271            1272            1273            1274            1275            1276            1277            1278            1279            1280
             1281            1282            1283            1284            1285            1286            1287            1288            1289            1290
             1291            1292            1293            1294            1295            1296            1297            1298            1299            1300
             1301            1302            1303            1304            1305            1306            1307            1308            1309            1310
             1311            1312            1313            1314            1315            1316            1317            1318            1319            1320
             1321            1322            1323            1324            1325            1326            1327            1328            1329            1330
             1331            1332            1333            1334            1335            1336            1337            1338            1339            1340
             1341            1342            1343            1344            1345            1346            1347            1348            1349            1350
             1351            1352            1353            1354            1355            1356            1357            1358            1359            1360
             1361            1362            1363            1364            1365            1366            1367            1368            1369            1370
             1371            1372            1373            1374            1375            1376            1377            1378            1379            1380
             1381            1382            1383            1384            1385            1386            1387            1388            1389            1390
             1391            1392            1393            1394            1395            1396            1397            1398            1399            1400
             1401            1402            1403            1404            1405            1406            1407            1408            1409            1410
             1411            1412            1413            1414            1415            1416            1417            1418            1419            1420
             1421            1422            1423            1424            1425            1426            1427            1428            1429            1430
             1431            1432            1433            1434            1435            1436            1437            1438            1439            1440
             1441            1442            1443            1444            1445            1446            1447            1448            1449            1450
             1451            1452            1453            1454            1455            1456            1457            1458            1459            1460
             1461            1462            1463            1464            1465            1466            1467            1468            1469            1470
             1471            1472            1473            1474            1475            1476            1477            1478            1479            1480
             1481            1482            1483            1484            1485            1486            1487            1488            1489            1490
             1491            1492            1493            1494            1495            1496            1497            1498            1499            1500
             1501            1502            1503            1504            1505            1506            1507            1508            1509            1510
             1511            1512            1513            1514            1515            1516            1517            1518            1519            1520
             1521            1522            1523            1524            1525            1526            1527            1528            1529            1530
             1531            1532            1533            1534            1535            1536            1537            1538            1539            1540
             1541            1542            1543            1544            1545            1546            1547            1548            1549            1550
             1551            1552            1553            1554            1555            1556            1557            1558            1559            1560
             1561            1562            1563            1564            1565            1566            1567            1568            1569            1570
             1571            1572            1573            1574            1575            1576            1577            1578            1579            1580
             1581            1582            1583            1584            1585            1586            1587            1588            1589            1590
             1591            1592            1593            1594            1595            1596            1597            1598            1599            1600
             1601            1602            1603            1604            1605            1606            1607            1608            1609            1610
             1611            1612            1613            1614            1615            1616            1617            1618            1619            1620
             1621            1622            1623            1624            1625            1626            1627            1628            1629            1630
             1631            1632            1633            1634            1635            1636            1637            1638            1639            1640
             1641            1642            1643            1644            1645            1646            1647            1648            1649            1650
             1651            1652            1653            1654            1655            1656            1657            1658            1659            1660
             1661            1662            1663            1664            1665            1666            1667            1668            1669            1670
             1671            1672            1673            1674            1675            1676            1677            1678            1679            1680
             1681            1682            1683            1684            1685            1686            1687            1688            1689            1690
             1691            1692            1693            1694            1695            1696            1697            1698            1699            1700
             1701            1702            1703            1704            1705            1706            1707            1708            1709            1710
             1711            1712            1713            1714            1715            1716            1717            1718            1719            1720
             1721            1722            1723            1724            1725            1726            1727            1728            1729            1730
             1731            1732            1733            1734            1735            1736            1737            1738            1739            1740
             1741            1742            1743            1744            1745            1746            1747            1748            1749            1750
             1751            1752            1753            1754            1755            1756            1757            1758            1759            1760
             1761            1762            1763            1764            1765            1766            1767            1768            1769            1770
             1771            1772            1773            1774            1775            1776            1777            1778            1779            1780
             1781            1782            1783            1784            1785            1786            1787            1788            1789            1790
             1791            1792            1793            1794            1795            1796            1797            1798            1799            1800
             1801            1802            1803            1804            1805            1806            1807            1808            1809            1810
             1811            1812            1813            1814            1815            1816            1817            1818            1819            1820
             1821            1822            1823            1824            1825            1826            1827            1828            1829            1830
             1831            1832            1833            1834            1835            1836            1837            1838            1839            1840
             1841            1842            1843            1844            1845            1846            1847            1848            1849            1850
             1851            1852            1853            1854            1855            1856            1857            1858            1859            1860
             1861            1862            1863            1864            1865            1866            1867            1868            1869            1870
             1871            1872            1873            1874            1875            1876            1877            1878            1879            1880
             1881            1882            1883            1884            1885            1886            1887            1888            1889            1890
             1891            1892            1893            1894            1895            1896            1897            1898            1899            1900
             1901            1902            1903            1904            1905            1906            1907            1908            1909            1910
             1911            1912            1913            1914            1915            1916            1917            1918            1919            1920
             1921            1922            1923            1924            1925            1926            1927            1928            1929            1930
             1931            1932            1933            1934            1935            1936            1937            1938            1939            1940
             1941            1942            1943            1944            1945            1946            1947            1948            1949            1950
             1951            1952            1953            1954            1955            1956            1957            1958            1959            1960
             1961            1962            1963            1964            1965            1966            1967            1968            1969            1970
             1971            1972            1973            1974            1975            1976            1977            1978            1979            1980
             1981            1982            1983            1984            1985            1986            1987            1988            1989            1990
             1991            1992            1993            1994            1995            1996            1997            1998            1999            2000
             2001            2002            2003            2004            2005            2006            2007            2008            2009            2010
             2011            2012            2013            2014            2015            2016            2017            2018            2019            2020
             2021            2022            2023            2024            2025            2026            2027            2028            2029            2030
             2031            2032            2033            2034            2035            2036            2037            2038            2039            2040
             2041            2042            2043            2044            2045            2046            2047            2048            2049            2050
             2051            2052            2053            2054            2055            2056            2057            2058            2059            2060
             2061            2062            2063            2064            2065            2066            2067            2068            2069            2070
             2071            2072            2073            2074            2075            2076            2077            2078            2079            2080
             2081            2082            2083            2084            2085            2086            2087            2088            2089            2090
             2091            2092            2093            2094            2095            2096            2097            2098            2099            2100
             2101            2102            2103            2104            2105            2106            2107            2108            2109            2110
             2111            2112            2113            2114            2115            2116            2117            2118            2119            2120
             2121            2122            2123            2124            2125            2126            2127            2128            2129            2130
             2131            2132            2133            2134            2135            2136            2137            2138            2139            2140
             2141            2142            2143            2144            2145            2146            2147            2148            2149            2150
             2151            2152            2153            2154            2155            2156            2157            2158            2159            2160
             2161            2162            2163            2164            2165            2166            2167            2168            2169            2170
             2171            2172            2173            2174            2175            2176            2177            2178            2179            2180
             2181            2182            2183            2184            2185            2186            2187            2188            2189            2190
             2191            2192            2193            2194            2195            2196            2197            2198            2199            2200
             2201            2202            2203            2204            2205            2206            2207            2208            2209            2210
             2211            2212            2213            2214            2215            2216            2217            2218            2219            2220
             2221            2222            2223            2224            2225            2226            2227            2228            2229            2230
             2231            2232            2233            2234            2235            2236            2237            2238            2239            2240
             2241            2242            2243            2244            2245            2246            2247            2248            2249            2250
             2251            2252            2253            2254            2255            2256            2257            2258            2259            2260
             2261            2262            2263            2264            2265            2266            2267            2268            2269            2270
             2271            2272            2273            2274            2275            2276            2277            2278            2279            2280
             2281            2282            2283            2284            2285            2286            2287            2288            2289            2290
             2291            2292            2293            2294            2295            2296            2297            2298            2299            2300
             2301            2302            2303            2304            2305            2306            2307            2308            2309            2310
             2311            2312            2313            2314            2315            2316            2317            2318            2319            2320
             2321            2322            2323            2324            2325            2326            2327            2328            2329            2330
             2331            2332            2333            2334            2335            2336            2337            2338            2339            2340
             2341            2342            2343            2344            2345            2346            2347            2348            2349            2350
             2351            2352            2353            2354            2355            2356            2357            2358            2359            2360
             2361            2362            2363            2364            2365            2366            2367            2368            2369            2370
             2371            2372            2373            2374            2375            2376            2377            2378            2379            2380
             2381            2382            2383            2384            2385            2386            2387            2388            2389            2390
             2391            2392            2393            2394            2395            2396            2397            2398            2399            2400
             2401            2402            2403            2404            2405            2406            2407            2408            2409            2410
             2411            2412            2413            2414            2415            2416            2417            2418            2419            2420
             2421            2422            2423            2424            2425            2426            2427            2428            2429            2430
             2431            2432            2433            2434            2435            2436            2437            2438            2439            2440
             2441            2442            2443            2444            2445            2446            2447            2448            2449            2450
             2451            2452            2453            2454            2455            2456            2457            2458            2459            2460
             2461            2462            2463            2464            2465            2466            2467            2468            2469            2470
             2471            2472            2473            2474            2475            2476            2477            2478            2479            2480
             2481            2482            2483            2484            2485            2486            2487            2488            2489            2490
             2491            2492            2493            2494            2495            2496            2497            2498            2499            2500
             2501            2502            2503            2504            2505            2506            2507            2508            2509            2510
             2511            2512            2513            2514            2515            2516            2517            2518            2519            2520
             2521            2522            2523            2524            2525            2526            2527            2528            2529            2530
             2531            2532            2533            2534            2535            2536            2537            2538            2539            2540
             2541            2542            2543            2544            2545            2546            2547            2548            2549            2550
             2551            2552            2553            2554            2555            2556            2557            2558            2559            2560
             2561            2562            2563            2564            2565            2566            2567            2568            2569            2570
             2571            2572            2573            2574            2575            2576            2577            2578            2579            2580
             2581            2582            2583            2584            2585            2586            2587            2588            2589            2590
             2591            2592            2593            2594            2595            2596            2597            2598            2599            2600
             2601            2602            2603            2604            2605            2606            2607            2608            2609            2610
             2611            2612            2613            2614            2615            2616            2617            2618            2619            2620
             2621            2622            2623            2624            2625            2626            2627            2628            2629            2630
             2631            2632            2633            2634            2635            2636            2637            2638            2639            2640
             2641            2642            2643            2644            2645            2646            2647            2648            2649            2650
             2651            2652            2653            2654            2655            2656            2657            2658            2659            2660
             2661            2662            2663            2664            2665            2666            2667            2668            2669            2670
             2671            2672            2673            2674            2675            2676            2677            2678            2679            2680
             2681            2682            2683            2684            2685            2686            2687            2688            2689            2690
             2691            2692            2693            2694            2695            2696            2697            2698            2699            2700
             2701            2702            2703            2704            2705            2706            2707            2708            2709            2710
             2711            2712            2713            2714            2715            2716            2717            2718            2719            2720
             2721            2722            2723            2724            2725            2726            2727            2728            2729            2730
             2731            2732            2733            2734            2735            2736            2737            2738            2739            2740
             2741            2742            2743            2744            2745            2746            2747            2748            2749            2750
             2751            2752            2753            2754            2755            2756            2757            2758            2759            2760
             2761            2762            2763            2764            2765            2766            2767            2768            2769            2770
             2771            2772            2773            2774            2775            2776            2777            2778            2779            2780
             2781            2782            2783            2784            2785            2786            2787            2788            2789            2790
             2791            2792            2793            2794            2795            2796            2797            2798            2799            2800
             2801            2802            2803            2804            2805            2806            2807            2808            2809            2810
             2811            2812            2813            2814            2815            2816            2817            2818            2819            2820
             2821            2822            2823            2824            2825            2826            2827            2828            2829            2830
             2831            2832            2833            2834            2835            2836            2837            2838            2839            2840
             2841            2842            2843            2844            2845            2846            2847            2848            2849            2850
             2851            2852            2853            2854            2855            2856            2857            2858            2859            2860
             2861            2862            2863            2864            2865            2866            2867            2868            2869            2870
             2871            2872            2873            2874            2875            2876            2877            2878            2879            2880
             2881            2882            2883            2884            2885            2886            2887            2888            2889            2890
             2891            2892            2893            2894            2895            2896            2897            2898            2899            2900
             2901            2902            2903            2904            2905            2906            2907            2908            2909            2910
             2911            2912            2913            2914            2915            2916            2917            2918            2919            2920
             2921            2922            2923            2924            2925            2926            2927            2928            2929            2930
             2931            2932            2933            2934            2935            2936            2937            2938            2939            2940
             2941            2942            2943            2944            2945            2946            2947            2948            2949            2950
             2951            2952            2953            2954            2955            2956            2957            2958            2959            2960
             2961            2962            2963            2964            2965            2966            2967            2968            2969            2970
             2971            2972            2973            2974            2975            2976            2977            2978            2979            2980
             2981            2982            2983            2984            2985            2986            2987            2988            2989            2990
             2991            2992            2993            2994            2995            2996            2997            2998            2999            3000
             3001            3002            3003            3004            3005            3006            3007            3008            3009            3010
             3011            3012            3013            3014            3015            3016            3017            3018            3019            3020
             3021            3022            3023            3024            3025            3026            3027            3028            3029            3030
             3031            3032            3033            3034            3035            3036            3037            3038            3039            3040
             3041            3042            3043            3044            3045            3046            3047            3048            3049            3050
             3051            3052            3053            3054            3055            3056            3057            3058            3059            3060
             3061            3062            3063            3064            3065            3066            3067            3068            3069            3070
             3071            3072            3073            3074            3075            3076            3077            3078            3079            3080
             3081            3082            3083            3084            3085            3086            3087            3088            3089            3090
             3091            3092            3093            3094            3095            3096            3097            3098            3099            3100
             3101            3102            3103            3104            3105            3106            3107            3108            3109            3110
             3111            3112            3113            3114            3115            3116            3117            3118            3119            3120
             3121            3122            3123            3124            3125            3126            3127            3128            3129            3130
             3131            3132            3133            3134            3135            3136            3137            3138            3139            3140
             3141            3142            3143            3144            3145            3146            3147            3148            3149            3150
             3151            3152            3153            3154            3155            3156            3157            3158            3159            3160
             3161            3162            3163            3164            3165            3166            3167            3168            3169            3170
             3171            3172            3173            3174            3175            3176            3177            3178            3179            3180
             3181            3182            3183            3184            3185            3186            3187            3188            3189            3190
             3191            3192            3193            3194            3195            3196            3197            3198            3199            3200
             3201            3202            3203            3204            3205            3206            3207            3208            3209            3210
             3211            3212            3213            3214            3215            3216            3217            3218            3219            3220
             3221            3222            3223            3224            3225            3226            3227            3228            3229            3230
             3231            3232            3233            3234            3235            3236            3237            3238            3239            3240
             3241            3242            3243            3244            3245            3246            3247            3248            3249            3250
             3251            3252            3253            3254            3255            3256            3257            3258            3259            3260
             3261            3262            3263            3264            3265            3266            3267            3268            3269            3270
             3271            3272            3273            3274            3275            3276            3277            3278            3279            3280
             3281            3282            3283            3284            3285            3286            3287            3288            3289            3290
             3291            3292            3293            3294            3295            3296            3297            3298            3299            3300
             3301            3302            3303            3304            3305            3306            3307            3308            3309            3310
             3311            3312            3313            3314            3315            3316            3317            3318            3319            3320
             3321            3322            3323            3324            3325            3326            3327            3328            3329            3330
             3331            3332            3333            3334            3335            3336            3337            3338            3339            3340
             3341            3342            3343            3344            3345            3346            3347            3348            3349            3350
             3351            3352            3353            3354            3355            3356            3357            3358            3359            3360
             3361            3362            3363            3364            3365            3366            3367            3368            3369            3370
             3371            3372            3373            3374            3375            3376            3377            3378            3379            3380
             3381            3382            3383            3384            3385            3386            3387            3388            3389            3390
             3391            3392            3393            3394            3395            3396            3397            3398            3399            3400
             3401            3402            3403            3404            3405            3406            3407            3408            3409            3410
             3411            3412            3413            3414            3415            3416            3417            3418            3419            3420
             3421            3422            3423            3424            3425            3426            3427            3428            3429            3430
             3431            3432            3433            3434            3435            3436            3437            3438            3439            3440
             3441            3442            3443            3444            3445            3446            3447            3448            3449            3450
             3451            3452            3453            3454            3455            3456            3457            3458            3459            3460
             3461            3462            3463            3464            3465            3466            3467            3468            3469            3470
             3471            3472            3473            3474            3475            3476            3477            3478            3479            3480
             3481            3482            3483            3484            3485            3486            3487            3488            3489            3490
             3491            3492            3493            3494            3495            3496            3497            3498            3499            3500
             3501            3502            3503            3504            3505            3506            3507            3508            3509            3510
             3511            3512            3513            3514            3515            3516            3517            3518            3519            3520
             3521            3522            3523            3524            3525            3526            3527            3528            3529            3530
             3531            3532            3533            3534            3535            3536            3537            3538            3539            3540
             3541            3542            3543            3544            3545            3546            3547            3548            3549            3550
             3551            3552            3553            3554            3555            3556            3557            3558            3559            3560
             3561            3562            3563            3564            3565            3566            3567            3568            3569            3570
             3571            3572            3573            3574            3575            3576            3577            3578            3579            3580
             3581            3582            3583            3584            3585            3586            3587            3588            3589            3590
             3591            3592            3593            3594            3595            3596            3597            3598            3599            3600
             3601            3602            3603            3604            3605            3606            3607            3608            3609            3610
             3611            3612            3613            3614            3615            3616            3617            3618            3619            3620
             3621            3622            3623            3624            3625            3626            3627            3628            3629            3630
             3631            3632            3633            3634            3635            3636            3637            3638            3639            3640
             3641            3642            3643            3644            3645            3646            3647            3648            3649            3650
             3651            3652            3653            3654            3655            3656            3657            3658            3659            3660
             3661            3662            3663            3664            3665            3666            3667            3668            3669            3670
             3671            3672            3673            3674            3675            3676            3677            3678            3679            3680
             3681            3682            3683            3684            3685            3686            3687            3688            3689            3690
             3691            3692            3693            3694            3695            3696            3697            3698            3699            3700
             3701            3702            3703            3704            3705            3706            3707            3708            3709            3710
             3711            3712            3713            3714            3715            3716            3717            3718            3719            3720
             3721            3722            3723            3724            3725            3726            3727            3728            3729            3730
             3731            3732            3733            3734            3735            3736            3737            3738            3739            3740
             3741            3742            3743            3744            3745            3746            3747            3748            3749            3750
             3751            3752            3753            3754            3755            3756            3757            3758            3759            3760
             3761            3762            3763            3764            3765            3766            3767            3768            3769            3770
             3771            3772            3773            3774            3775            3776            3777            3778            3779            3780
             3781            3782            3783
 ................................................................................................................................................................
   1      133.790         133.777         133.743         133.670         133.619         133.611         133.495         133.474         133.594         133.683    
          133.760         133.828         133.891         133.952         134.009         134.064         134.119         134.176         134.233         134.283    
          134.331         134.377         134.413         133.701         133.723         133.715         133.683         133.618         133.512         133.433    
          133.534         133.484         133.423         133.482         133.428         133.412         133.559         133.654         133.733         133.805    
          133.874         133.941         134.006         134.069         134.133         134.197         134.256         134.314         134.373         134.442    
          134.549         133.668         133.682         133.689         133.681         133.657         133.614         133.551         133.488         133.462    
          133.519         133.503         133.465         133.513         133.487         133.471         133.568         133.603         133.521         133.570    
          133.652         133.732         133.809         133.884         133.958         134.028         134.096         134.165         134.232         134.298    
          134.366         134.440         134.527         134.621         133.655         133.663         133.671         133.673         133.667         133.650    
          133.623         133.588         133.555         133.522         133.474         133.520         133.498         133.475         133.571         133.607    
          133.525         133.574         133.660         133.746         133.831         133.913         133.992         134.065         134.138         134.208    
          134.280         134.354         134.430         134.512         134.600         134.693         133.646         133.653         133.660         133.665    
          133.666         133.662         133.652         133.635         133.615         133.593         133.569         133.532         133.477         133.526    
          133.506         133.480         133.580         133.618         133.533         133.585         133.677         133.776         133.872         133.959    
          134.036         134.114         134.186         134.260         134.337         134.417         134.500         134.589         134.679         134.770    
          133.635         133.643         133.651         133.657         133.663         133.665         133.664         133.659         133.650         133.638    
          133.624         133.608         133.585         133.546         133.484         133.534         133.519         133.490         133.588         133.636    
          133.525         133.597         133.716         133.836         133.932         134.011         134.089         134.163         134.238         134.318    
          134.400         134.489         134.581         134.672         134.766         134.862         133.622         133.631         133.640         133.649    
          133.657         133.663         133.667         133.669         133.668         133.665         133.660         133.652         133.643         133.630    
          133.609         133.573         133.505         133.538         133.554         133.523         133.628         133.701         133.576         133.685    
          133.816         133.917         133.990         134.065         134.137         134.212         134.294         134.381         134.474         134.573    
          134.671         134.771         134.876         134.984         133.600         133.614         133.626         133.638         133.648         133.658    
          133.666         133.672         133.677         133.680         133.681         133.681         133.679         133.677         133.673         133.667    
          133.658         133.642         133.579         133.687         133.686         133.746         133.808         133.858         133.860         133.895    
          133.922         133.974         134.037         134.104         134.179         134.264         134.357         134.457         134.562         134.668    
          134.778         134.897         135.025         135.166         133.554         133.586         133.606         133.619         133.626         133.617    
          133.625         133.636         133.649         133.660         133.670         133.678         133.686         133.692         133.697         133.702    
          133.706         133.710         133.715         133.721         133.730         133.751         133.797         133.857         133.893         133.861    
          133.891         133.922         133.934         133.918         133.934         133.949         133.966         133.948         133.954         133.995    
          134.017         133.970         134.000         134.059         134.131         134.223         134.327         134.437         134.548         134.661    
          134.781         134.913         135.065         135.267         135.599         135.821         135.990         136.122         136.235         136.336    
          136.429         136.516         136.596         136.673         136.750         136.827         136.906         136.983         137.060         137.138    
          137.220         137.295         137.367         137.436         137.503         137.567         137.635         137.781         137.949         138.053    
          138.126         138.212         138.358         138.506         138.586         138.764         138.951         139.114         139.270         139.527    
          133.551         133.580         133.599         133.607         133.597         133.605         133.614         133.618         133.614         133.617    
          133.624         133.615         133.623         133.635         133.650         133.663         133.675         133.686         133.696         133.705    
          133.714         133.722         133.731         133.740         133.751         133.765         133.782         133.808         133.847         133.892    
          133.933         133.960         133.966         133.971         133.975         133.979         133.997         134.019         133.975         133.982    
          134.052         134.085         133.997         134.036         134.163         134.290         134.410         134.528         134.647         134.774    
          134.913         135.066         135.249         135.473         135.666         135.832         135.970         136.090         136.196         136.293    
          136.384         136.472         136.557         136.636         136.719         136.801         136.884         136.967         137.053         137.142    
          137.230         137.319         137.411         137.505         137.603         137.726         137.861         137.999         138.125         138.238    
          138.351         138.488         138.629         138.836         138.976         139.176         139.394         139.640         140.081         140.795    
          133.550         133.577         133.600         133.619         133.636         133.652         133.667         133.681         133.694         133.706    
          133.718         133.730         133.742         133.754         133.767         133.782         133.800         133.822         133.849         133.881    
          133.917         133.951         133.979         133.998         134.009         134.007         134.001         134.016         134.001         134.100    
          134.247         134.380         134.502         134.626         134.759         134.897         135.043         135.210         135.388         135.555    
          135.714         135.852         135.975         136.087         136.189         136.283         136.375         136.463         136.547         136.632    
          136.719         136.807         136.895         136.988         137.087         137.188         137.286         137.398         137.503         137.613    
          137.746         137.882         138.011         138.153         138.278         138.401         138.540         138.691         138.919         139.075    
          139.292         139.516         139.783         140.169         140.642         141.100         133.549         133.576         133.600         133.620    
          133.638         133.655         133.671         133.687         133.702         133.717         133.731         133.745         133.760         133.775    
          133.792         133.810         133.831         133.854         133.881         133.911         133.942         133.974         134.002         134.026    
          134.045         134.041         134.036         134.062         134.067         134.026         134.061         134.078         134.106         134.199    
          134.344         134.469         134.601         134.735         134.870         135.008         135.164         135.323         135.475         135.624    
          135.758         135.882         135.996         136.100         136.197         136.291         136.382         136.470         136.560         136.650    
          136.744         136.839         136.938         137.046         137.158         137.260         137.388         137.500         137.623         137.756    
          137.895         138.025         138.173         138.305         138.430         138.570         138.775         138.974         139.129         139.376    
          139.588         139.843         140.180         140.536         140.922         141.319         133.549         133.577         133.601         133.622    
          133.642         133.660         133.677         133.694         133.710         133.727         133.744         133.760         133.777         133.795    
          133.814         133.834         133.856         133.881         133.908         133.937         133.967         133.997         134.026         134.054    
          134.079         134.102         134.111         134.125         134.130         134.142         134.148         134.200         134.152         134.186    
          134.300         134.434         134.570         134.702         134.830         134.968         135.123         135.269         135.413         135.550    
          135.682         135.804         135.919         136.023         136.122         136.218         136.311         136.405         136.498         136.593    
          136.690         136.791         136.898         137.011         137.136         137.240         137.372         137.507         137.629         137.763    
          137.903         138.030         138.174         138.345         138.457         138.636         138.827         139.016         139.175         139.414    
          139.625         139.868         140.154         140.466         140.795         141.138         141.486         133.550         133.579         133.603    
          133.625         133.645         133.664         133.683         133.701         133.719         133.737         133.756         133.774         133.793    
          133.813         133.834         133.856         133.879         133.905         133.932         133.961         133.991         134.021         134.051    
          134.080         134.109         134.138         134.168         134.182         134.202         134.196         134.211         134.247         134.293    
          134.224         134.275         134.380         134.522         134.657         134.782         134.936         135.083         135.223         135.360    
          135.491         135.617         135.738         135.851         135.955         136.054         136.152         136.248         136.344         136.442    
          136.542         136.644         136.750         136.862         136.982         137.112         137.223         137.361         137.509         137.633    
          137.773         137.901         138.035         138.197         138.380         138.488         138.662         138.858         139.045         139.209    
          139.437         139.642         139.869         140.125         140.404         140.696         140.993         141.299         141.610         133.552    
          133.581         133.606         133.628         133.649         133.669         133.689         133.708         133.728         133.747         133.766    
          133.787         133.808         133.829         133.852         133.875         133.900         133.927         133.955         133.984         134.014    
          134.044         134.075         134.107         134.137         134.168         134.198         134.225         134.235         134.240         134.242    
          134.243         134.299         134.354         134.254         134.323         134.450         134.596         134.733         134.898         135.045    
          135.184         135.314         135.441         135.562         135.681         135.790         135.894         135.994         136.092         136.191    
          136.290         136.392         136.497         136.604         136.715         136.832         136.957         137.090         137.212         137.354    
          137.503         137.637         137.775         137.906         138.038         138.213         138.386         138.543         138.706         138.877    
          139.061         139.245         139.445         139.648         139.860         140.095         140.347         140.613         140.882         141.147    
          141.422         141.697         133.555         133.584         133.609         133.632         133.654         133.675         133.695         133.716    
          133.736         133.757         133.777         133.799         133.822         133.845         133.869         133.894         133.920         133.947    
          133.975         134.005         134.036         134.067         134.100         134.131         134.164         134.196         134.226         134.252    
          134.265         134.250         134.273         134.267         134.256         134.355         134.417         134.299         134.379         134.526    
          134.688         134.847         135.008         135.148         135.276         135.399         135.516         135.628         135.736         135.838    
          135.938         136.037         136.137         136.240         136.347         136.456         136.569         136.686         136.808         136.938    
          137.072         137.204         137.349         137.498         137.638         137.775         137.912         138.045         138.234         138.411    
          138.571         138.735         138.911         139.082         139.262         139.445         139.647         139.849         140.064         140.297    
          140.545         140.798         141.018         141.119         140.972         141.090         141.319         141.673         133.557         133.586    
          133.612         133.636         133.658         133.680         133.701         133.723         133.744         133.766         133.788         133.810    
          133.835         133.860         133.885         133.911         133.938         133.966         133.995         134.026         134.057         134.090    
          134.123         134.157         134.191         134.224         134.256         134.283         134.302         134.304         134.269         134.309    
          134.310         134.305         134.287         134.314         134.303         134.425         134.510         134.375         134.487         134.647    
          134.786         134.850         134.769         134.844         134.968         135.116         135.244         135.363         135.474         135.581    
          135.686         135.785         135.885         135.984         136.086         136.192         136.304         136.418         136.537         136.662    
          136.789         136.923         137.062         137.200         137.347         137.495         137.637         137.778         137.920         138.074    
          138.253         138.427         138.595         138.763         138.933         139.104         139.268         139.447         139.642         139.835    
          140.037         140.254         140.489         140.698         140.793         140.669         140.760         140.912         140.963         140.897    
          140.949         141.048         140.903         141.012         141.253         141.644         133.560         133.590         133.616         133.640    
          133.663         133.685         133.707         133.730         133.752         133.775         133.798         133.821         133.846         133.873    
          133.899         133.926         133.954         133.984         134.014         134.046         134.079         134.112         134.147         134.183    
          134.218         134.253         134.287         134.318         134.343         134.358         134.347         134.343         134.370         134.367    
          134.348         134.463         134.345         134.442         134.612         134.755         134.822         134.854         134.818         134.851    
          134.744         134.827         134.919         134.975         134.908         134.973         135.087         135.215         135.330         135.436    
          135.538         135.636         135.733         135.833         135.932         136.035         136.145         136.260         136.382         136.508    
          136.640         136.773         136.912         137.056         137.200         137.347         137.495         137.637         137.790         137.936    
          138.093         138.266         138.448         138.617         138.785         138.953         139.115         139.276         139.450         139.633    
          139.820         140.013         140.215         140.436         140.667         140.914         141.212         141.620         133.563         133.593    
          133.619         133.644         133.667         133.689         133.712         133.736         133.759         133.783         133.807         133.832    
          133.857         133.884         133.913         133.941         133.970         134.001         134.033         134.066         134.100         134.135    
          134.171         134.209         134.246         134.282         134.320         134.356         134.390         134.416         134.422         134.373    
          134.392         134.420         134.388         134.581         134.735         134.805         134.840         134.801         134.841         134.735    
          134.801         134.840         134.805         134.839         134.899         134.968         134.897         134.965         135.047         135.095    
          135.039         135.094         135.192         135.302         135.401         135.496         135.589         135.682         135.776         135.875    
          135.980         136.093         136.216         136.346         136.481         136.619         136.760         136.904         137.052         137.205    
          137.352         137.500         137.643         137.800         137.953         138.110         138.284         138.471         138.633         138.761    
          138.835         138.765         138.848         138.966         139.122         139.284         139.420         139.488         139.418         139.478    
          139.509         139.480         139.511         139.589         139.661         139.582         139.664         139.806         139.991         140.183    
          140.392         140.618         140.863         141.168         141.602         133.566         133.597         133.623         133.647         133.670    
          133.693         133.717         133.741         133.766         133.790         133.816         133.842         133.869         133.896         133.917    
          133.928         133.921         133.934         133.954         133.985         134.017         134.051         134.085         134.121         134.158    
          134.196         134.235         134.273         134.313         134.355         134.400         134.440         134.480         134.511         134.489    
          134.479         134.545         134.555         134.497         134.634         134.567         134.685         134.745         134.828         134.774    
          134.839         134.885         134.913         134.887         134.916         134.968         134.909         134.972         135.024         135.046    
          135.023         135.045         135.089         135.034         135.086         135.159         135.200         135.151         135.197         135.277    
          135.369         135.457         135.544         135.629         135.716         135.811         135.917         136.036         136.170         136.311    
          136.455         136.602         136.751         136.903         137.057         137.178         137.239         137.176         137.246         137.359    
          137.507         137.658         137.811         137.968         138.127         138.299         138.482         138.651         138.775         138.837    
          138.871         138.839         138.873         138.786         138.857         138.938         139.006         138.946         139.011         139.127    
          139.286         139.418         139.499         139.418         139.500         139.567         139.600         139.568         139.601         139.665    
          139.586         139.665         139.794         139.975         140.158         140.357         140.577         140.819         141.127         141.580    
          133.569         133.603         133.627         133.649         133.672         133.696         133.721         133.746         133.771         133.797    
          133.823         133.851         133.879         133.899         133.910         133.903         133.915         133.922         133.927         133.924    
          133.930         133.940         133.932         133.944         133.967         134.000         134.033         134.068         134.104         134.142    
          134.181         134.220         134.259         134.301         134.345         134.393         134.441         134.490         134.542         134.595    
          134.660         134.727         134.757         134.769         134.795         134.848         134.926         134.967         134.989         134.970    
          134.991         134.935         134.986         135.034         135.085         135.036         135.084         135.137         135.155         135.136    
          135.154         135.189         135.143         135.182         135.255         135.336         135.411         135.491         135.571         135.652    
          135.741         135.843         135.969         136.114         136.275         136.433         136.590         136.748         136.909         137.035    
          137.097         137.039         137.101         137.162         137.192         137.164         137.195         137.249         137.188         137.251    
          137.333         137.397         137.318         137.349         137.321         137.352         137.407         137.519         137.671         137.824    
          137.981         138.143         138.312         138.487         138.665         138.826         138.988         139.107         139.170         139.108    
          139.163         139.191         139.165         139.193         139.256         139.321         139.254         139.328         139.419         139.486    
          139.520         139.488         139.521         139.420         139.506         139.586         139.662         139.593         139.658         139.789    
          139.960         140.141         140.336         140.549         140.789         141.100         141.561         133.617         133.629         133.649    
          133.673         133.698         133.723         133.749         133.776         133.803         133.830         133.858         133.887         133.917    
          133.947         133.980         134.014         134.049         134.085         134.123         134.163         134.203         134.242         134.284    
          134.329         134.378         134.428         134.480         134.535         134.597         134.663         134.734         134.793         134.823    
          134.804         134.839         134.888         134.950         134.982         135.000         134.984         135.002         134.959         134.996    
          135.037         135.083         135.041         135.083         135.150         135.230         135.298         135.365         135.431         135.498    
          135.566         135.646         135.746         135.881         136.049         136.237         136.415         136.582         136.748         136.912    
          137.074         137.230         137.345         137.417         137.357         137.419         137.533         137.684         137.835         137.997    
          138.159         138.326         138.498         138.635         138.708         138.636         138.700         138.733         138.703         138.736    
          138.800         138.872         138.801         138.882         138.961         139.031         138.963         139.040         139.093         139.124    
          139.093         139.128         139.181         139.096         139.132         139.099         139.135         139.170         139.200         139.170    
          139.203         139.258         139.331         139.243         139.276         139.243         139.280         139.335         139.421         139.504    
          139.423         139.505         139.630         139.764         139.830         139.760         139.819         139.850         139.819         139.849    
          139.923         139.987         139.920         139.986         140.130         140.323         140.520         140.770         141.083         141.554    
          133.618         133.644         133.670         133.697         133.724         133.751         133.779         133.807         133.836         133.865    
          133.896         133.927         133.959         133.992         134.027         134.064         134.102         134.142         134.183         134.223    
          134.265         134.310         134.358         134.408         134.460         134.516         134.575         134.643         134.711         134.760    
          134.813         134.773         134.830         134.826         134.856         134.843         134.867         134.912         134.989         135.045    
          135.083         135.049         135.081         135.123         135.153         135.111         135.124         135.109         135.122         135.149    
          135.203         135.265         135.321         135.375         135.432         135.474         135.527         135.550         135.465         135.467    
          135.596         135.653         135.492         135.558         135.750         135.834         135.676         135.793         135.982         136.201    
          136.401         136.580         136.753         136.922         137.085         137.242         137.400         137.551         137.701         137.851    
          138.013         138.174         138.339         138.512         138.642         138.725         138.648         138.714         138.748         138.717    
          138.751         138.808         138.887         138.817         138.887         138.968         139.046         138.972         139.033         139.065    
          139.032         139.068         139.102         139.137         139.106         139.137         139.172         139.205         139.176         139.205    
          139.124         139.196         139.245         139.284         139.248         139.288         139.342         139.254         139.292         139.260    
          139.294         139.332         139.362         139.336         139.365         139.411         139.444         139.413         139.447         139.507    
          139.436         139.507         139.636         139.759         139.828         139.763         139.824         139.956         140.131         140.321    
          140.516         140.764         141.082         141.557         133.636         133.665         133.694         133.723         133.752         133.781    
          133.810         133.840         133.871         133.903         133.936         133.969         134.004         134.040         134.078         134.118    
          134.160         134.202         134.244         134.289         134.336         134.386         134.437         134.491         134.549         134.611    
          134.679         134.747         134.790         134.835         134.798         134.833         134.854         134.871         134.858         134.872    
          134.904         134.940         134.894         134.954         134.999         135.065         135.111         135.140         135.107         135.134    
          135.178         135.225         135.266         135.311         135.331         135.275         135.296         135.361         135.403         135.398    
          135.383         135.381         135.421         135.460         135.424         135.455         135.486         135.498         135.482         135.505    
          135.576         135.639         135.527         135.607         135.739         135.539         135.715         135.934         136.182         136.396    
          136.584         136.763         136.938         137.066         137.129         137.073         137.137         137.218         137.284         137.204    
          137.236         137.207         137.239         137.295         137.414         137.568         137.719         137.872         138.033         138.192    
          138.355         138.528         138.655         138.738         138.661         138.744         138.859         138.979         139.035         139.069    
          139.039         139.069         138.984         139.059         139.131         139.205         139.141         139.198         139.227         139.201    
          139.230         139.285         139.360         139.294         139.370         139.483         139.647         139.806         139.969         140.142    
          140.323         140.504         140.758         141.067         141.595         133.657         133.689         133.720         133.751         133.781    
          133.813         133.844         133.877         133.910         133.944         133.979         134.016         134.053         134.093         134.134    
          134.177         134.221         134.266         134.312         134.361         134.412         134.465         134.521         134.580         134.643    
          134.709         134.776         134.839         134.897         134.930         134.973         134.949         134.983         134.997         135.018    
          135.015         135.041         135.055         135.075         135.063         135.074         135.100         135.124         135.091         135.112    
          135.148         135.162         135.131         135.140         135.182         135.194         135.154         135.161         135.210         135.216    
          135.174         135.183         135.215         135.241         135.253         135.205         135.218         135.213         135.257         135.276    
          135.336         135.292         135.334         135.372         135.381         135.377         135.398         135.429         135.445         135.457    
          135.474         135.468         135.489         135.516         135.564         135.580         135.722         135.642         135.742         135.921    
          136.182         136.402         136.599         136.781         136.956         137.115         137.232         137.309         137.242         137.319    
          137.434         137.588         137.740         137.896         138.057         138.217         138.379         138.548         138.673         138.756    
          138.685         138.749         138.782         138.753         138.786         138.843         138.907         138.853         138.919         138.992    
          139.068         139.005         139.063         139.092         139.067         139.096         139.151         139.224         139.164         139.232    
          139.310         139.368         139.398         139.372         139.403         139.325         139.393         139.466         139.522         139.478    
          139.533         139.661         139.829         139.982         140.149         140.335         140.526         140.769         141.133         141.600    
          133.680         133.714         133.747         133.780         133.813         133.847         133.881         133.915         133.951         133.988    
          134.027         134.067         134.107         134.150         134.195         134.241         134.287         134.334         134.385         134.438    
          134.493         134.549         134.609         134.672         134.736         134.803         134.873         134.940         135.002         135.058    
          135.107         135.154         135.204         135.249         135.297         135.361         135.426         135.494         135.519         135.532    
          135.574         135.595         135.547         135.601         135.604         135.615         135.668         135.745         135.672         135.715    
          135.855         135.966         135.791         135.969         136.190         136.423         136.626         136.810         136.983         137.105    
          137.167         137.115         137.169         137.198         137.176         137.205         137.254         137.332         137.272         137.339    
          137.460         137.614         137.767         137.923         138.084         138.246         138.415         138.582         138.700         138.778    
          138.717         138.784         138.905         139.020         139.089         139.035         139.095         139.218         139.376         139.533    
          139.690         139.850         140.006         140.169         140.351         140.536         140.777         141.134         141.643         133.705    
          133.741         133.777         133.812         133.847         133.883         133.920         133.958         133.997         134.037         134.079    
          134.122         134.167         134.213         134.259         134.307         134.357         134.409         134.463         134.519         134.576    
          134.636         134.698         134.764         134.832         134.902         134.976         135.045         135.113         135.175         135.236    
          135.301         135.363         135.427         135.459         135.490         135.501         135.536         135.565         135.638         135.701    
          135.763         135.778         135.810         135.853         135.903         135.831         136.006         135.955         136.067         136.245    
          136.467         136.664         136.850         137.020         137.133         137.205         137.155         137.218         137.335         137.497    
          137.650         137.800         137.958         138.118         138.284         138.456         138.620         138.776         138.937         139.087    
          139.255         139.410         139.560         139.723         139.876         140.037         140.199         140.380         140.573         140.792    
          141.123         141.659         133.732         133.771         133.808         133.846         133.884         133.923         133.963         134.004    
          134.046         134.090         134.135         134.182         134.229         134.278         134.328         134.379         134.432         134.486    
          134.543         134.601         134.661         134.725         134.791         134.862         134.934         135.010         135.085         135.159    
          135.230         135.302         135.378         135.453         135.492         135.520         135.532         135.566         135.540         135.555    
          135.561         135.576         135.598         135.608         135.640         135.683         135.763         135.836         135.870         135.906    
          135.928         135.974         135.937         135.984         136.024         136.075         136.152         136.344         136.534         136.718    
          136.897         137.068         137.226         137.345         137.404         137.361         137.429         137.539         137.693         137.843    
          137.997         138.158         138.337         138.500         138.657         138.819         138.973         139.130         139.292         139.446    
          139.595         139.755         139.912         140.074         140.236         140.415         140.610         140.830         141.131         141.632    
          133.761         133.802         133.842         133.883         133.925         133.967         134.010         134.055         134.101         134.147    
          134.195         134.245         134.295         134.347         134.400         134.454         134.509         134.566         134.626         134.687    
          134.752         134.820         134.893         134.967         135.045         135.125         135.206         135.287         135.369         135.455    
          135.539         135.624         135.709         135.795         135.875         135.958         136.003         136.053         136.055         136.106    
          136.110         136.168         136.186         136.232         136.295         136.450         136.618         136.787         136.954         137.130    
          137.246         137.302         137.272         137.333         137.368         137.398         137.380         137.411         137.460         137.424    
          137.484         137.595         137.745         137.895         138.046         138.208         138.384         138.545         138.710         138.873    
          139.018         139.175         139.331         139.482         139.634         139.789         139.951         140.110         140.273         140.452    
          140.647         140.862         141.166         141.628         133.791         133.835         133.880         133.924         133.968         134.014    
          134.062         134.099         134.118         134.102         134.122         134.145         134.166         134.142         134.152         134.144    
          134.154         134.171         134.207         134.259         134.312         134.365         134.420         134.475         134.532         134.590    
          134.650         134.713         134.780         134.850         134.924         135.001         135.083         135.168         135.255         135.345    
          135.437         135.533         135.627         135.722         135.817         135.908         135.993         136.079         136.128         136.184    
          136.175         136.210         136.234         136.228         136.251         136.261         136.297         136.293         136.331         136.403    
          136.550         136.708         136.868         137.030         137.190         137.361         137.513         137.664         137.811         137.952    
          138.103         138.259         138.432         138.602         138.771         138.922         139.070         139.224         139.374         139.524    
          139.675         139.824         139.987         140.151         140.314         140.491         140.690         140.906         141.198         141.636    
          133.824         133.872         133.920         133.968         134.016         134.066         134.117         134.153         134.177         134.158    
          134.179         134.218         134.272         134.327         134.382         134.439         134.496         134.554         134.614         134.675    
          134.739         134.809         134.881         134.956         135.037         135.122         135.213         135.308         135.408         135.510    
          135.616         135.723         135.826         135.926         135.973         136.007         136.016         136.059         136.056         136.097    
          136.086         136.104         136.106         136.125         136.145         136.189         136.232         136.274         136.274         136.313    
          136.318         136.355         136.349         136.371         136.486         136.646         136.800         136.957         137.115         137.277    
          137.445         137.598         137.742         137.886         138.023         138.172         138.322         138.483         138.664         138.836    
          138.979         139.116         139.266         139.419         139.567         139.713         139.861         140.026         140.196         140.363    
          140.540         140.741         140.956         141.221         141.636         133.859         133.911         133.963         134.016         134.069    
          134.121         134.174         134.228         134.283         134.340         134.398         134.457         134.516         134.577         134.638    
          134.701         134.767         134.838         134.913         134.991         135.074         135.166         135.265         135.368         135.479    
          135.594         135.711         135.825         135.935         136.035         136.127         136.169         136.213         136.217         136.256    
          136.303         136.372         136.393         136.400         136.440         136.453         136.515         136.588         136.563         136.616    
          136.647         136.638         136.669         136.684         136.750         136.726         136.796         136.895         137.003         137.061    
          137.036         137.102         137.201         137.370         137.537         137.634         137.691         137.664         137.733         137.771    
          137.834         137.807         137.873         137.962         138.097         138.197         138.253         138.224         138.293         138.339    
          138.403         138.349         138.379         138.365         138.393         138.440         138.548         138.680         138.759         138.702    
          138.787         138.884         139.019         139.160         139.312         139.468         139.610         139.750         139.903         140.071    
          140.236         140.406         140.584         140.778         140.993         141.250         141.640         133.896         133.955         134.013    
          134.068         134.123         134.178         134.235         134.293         134.352         134.412         134.474         134.536         134.599    
          134.662         134.728         134.796         134.869         134.947         135.030         135.118         135.215         135.325         135.439    
          135.562         135.689         135.821         135.946         136.061         136.164         136.257         136.341         136.383         136.418    
          136.424         136.463         136.497         136.516         136.543         136.574         136.597         136.619         136.630         136.648    
          136.626         136.700         136.689         136.732         136.759         136.754         136.782         136.779         136.851         136.831    
          136.904         136.938         136.998         136.983         137.051         137.059         137.088         137.080         137.108         137.153    
          137.134         137.191         137.299         137.465         137.569         137.629         137.599         137.670         137.680         137.709    
          137.695         137.724         137.771         137.742         137.812         137.845         137.892         137.919         137.908         137.935    
          137.883         137.952         137.989         138.052         138.027         138.096         138.126         138.182         138.162         138.224    
          138.257         138.328         138.294         138.362         138.402         138.474         138.431         138.501         138.610         138.720    
          138.777         138.808         138.783         138.812         138.733         138.809         138.869         138.930         138.882         138.949    
          139.048         139.204         139.311         139.371         139.324         139.397         139.460         139.525         139.482         139.549    
          139.610         139.673         139.632         139.699         139.755         139.816         139.779         139.843         139.908         139.975    
          139.935         140.003         140.070         140.132         140.096         140.160         140.233         140.304         140.257         140.340    
          140.407         140.481         140.433         140.516         140.580         140.652         140.603         140.684         140.818         141.024    
          141.279         141.634         133.940         134.003         134.062         134.121         134.180         134.239         134.300         134.362    
          134.424         134.489         134.554         134.620         134.687         134.755         134.827         134.904         134.987         135.073    
          135.169         135.274         135.389         135.520         135.660         135.808         135.952         136.083         136.196         136.297    
          136.388         136.420         136.448         136.465         136.500         136.463         136.478         136.485         136.501         136.523    
          136.535         136.565         136.601         136.639         136.679         136.667         136.733         136.748         136.813         136.801    
          136.866         136.890         136.934         136.961         136.955         136.982         136.941         137.007         137.035         137.104    
          137.087         137.141         137.238         137.403         137.553         137.644         137.712         137.681         137.752         137.783    
          137.829         137.855         137.844         137.871         137.820         137.887         137.920         137.993         137.961         138.009    
          138.036         138.024         138.053         138.063         138.109         138.136         138.123         138.149         138.074         138.102    
          138.091         138.116         138.162         138.195         138.238         138.264         138.251         138.276         138.232         138.286    
          138.323         138.370         138.395         138.381         138.406         138.333         138.359         138.345         138.370         138.416    
          138.456         138.531         138.485         138.557         138.653         138.748         138.823         138.766         138.844         138.898    
          138.967         138.924         138.985         139.049         139.107         139.072         139.132         139.198         139.257         139.221    
          139.282         139.345         139.418         139.374         139.435         139.553         139.710         139.871         140.013         140.175    
          140.291         140.374         140.321         140.399         140.462         140.542         140.492         140.564         140.631         140.716    
          140.660         140.736         140.817         140.899         140.836         140.927         141.065         141.298         141.634         133.986    
          134.051         134.115         134.178         134.241         134.305         134.369         134.434         134.503         134.572         134.642    
          134.713         134.785         134.862         134.943         135.032         135.125         135.229         135.340         135.475         135.630    
          135.789         135.954         136.093         136.228         136.348         136.438         136.513         136.575         136.622         136.644    
          136.663         136.662         136.691         136.713         136.705         136.731         136.711         136.758         136.785         136.778    
          136.806         136.767         136.832         136.857         136.923         136.910         136.973         136.998         137.066         137.047    
          137.109         137.191         137.353         137.498         137.644         137.729         137.770         137.795         137.784         137.810    
          137.767         137.823         137.858         137.926         137.900         137.957         137.974         138.002         137.988         138.015    
          138.063         138.028         138.096         138.128         138.195         138.157         138.220         138.302         138.380         138.447    
          138.408         138.479         138.510         138.583         138.542         138.612         138.655         138.708         138.681         138.736    
          138.790         138.862         138.819         138.878         138.990         139.142         139.295         139.449         139.610         139.767    
          139.925         140.087         140.250         140.411         140.573         140.738         140.865         140.955         140.889         140.970    
          141.061         141.151         141.077         141.177         141.334         141.641         134.033         134.102         134.170         134.238    
          134.307         134.375         134.442         134.514         134.590         134.665         134.740         134.818         134.900         134.988    
          135.081         135.186         135.302         135.442         135.587         135.759         135.931         136.102         136.253         136.366    
          136.472         136.554         136.624         136.678         136.681         136.683         136.719         136.714         136.711         136.733    
          136.730         136.679         136.720         136.752         136.729         136.763         136.700         136.734         136.771         136.720    
          136.764         136.810         136.856         136.884         136.873         136.901         136.839         136.918         136.958         137.022    
          137.008         137.064         137.075         137.102         137.094         137.120         137.162         137.144         137.199         137.297    
          137.440         137.578         137.715         137.846         137.979         138.066         138.108         138.133         138.120         138.144    
          138.098         138.154         138.186         138.250         138.220         138.273         138.363         138.438         138.506         138.466    
          138.538         138.570         138.633         138.603         138.653         138.747         138.900         139.056         139.205         139.349    
          139.517         139.676         139.831         139.995         140.154         140.317         140.477         140.634         140.782         140.955    
          141.099         141.203         141.116         141.209         141.332         141.466         141.342         141.475         141.706         141.708    
          134.082         134.156         134.230         134.303         134.376         134.450         134.524         134.607         134.687         134.768    
          134.854         134.944         135.040         135.140         135.252         135.376         135.538         135.684         135.866         136.043    
          136.217         136.363         136.485         136.586         136.669         136.732         136.778         136.774         136.774         136.822    
          136.832         136.763         136.735         136.830         136.787         136.872         136.962         136.922         137.008         137.108    
          137.259         137.391         137.522         137.655         137.788         137.918         138.046         138.168         138.291         138.418    
          138.499         138.568         138.526         138.594         138.675         138.817         138.971         139.118         139.267         139.417    
          139.588         139.744         139.901         140.064         140.230         140.389         140.538         140.688         140.836         140.991    
          141.167         141.381         141.625         134.134         134.214         134.292         134.372         134.453         134.532         134.623    
          134.711         134.799         134.893         134.993         135.096         135.204         135.328         135.471         135.636         135.810    
          136.016         136.195         136.361         136.497         136.617         136.711         136.791         136.852         136.896         136.938    
          136.981         137.021         137.080         137.085         137.137         137.222         137.357         137.478         137.604         137.733    
          137.861         137.984         138.106         138.225         138.353         138.443         138.494         138.467         138.532         138.563    
          138.627         138.600         138.653         138.748         138.892         139.040         139.189         139.347         139.502         139.662    
          139.826         139.986         140.168         140.327         140.465         140.607         140.738         140.872         141.016         141.168    
          141.366         141.608         134.187         134.274         134.362         134.448         134.539         134.636         134.735         134.833    
          134.935         135.045         135.159         135.285         135.430         135.588         135.810         136.023         136.206         136.381    
          136.548         136.683         136.757         136.838         136.916         136.976         137.022         137.078         137.132         137.162    
          137.204         137.216         137.258         137.264         137.306         137.316         137.360         137.452         137.567         137.688    
          137.807         137.926         138.005         138.056         138.031         138.097         138.124         138.176         138.161         138.215    
          138.247         138.300         138.284         138.338         138.376         138.429         138.410         138.465         138.501         138.567    
          138.539         138.595         138.691         138.838         138.974         139.119         139.278         139.449         139.605         139.768    
          139.955         140.167         140.349         140.472         140.593         140.689         140.792         140.898         141.003         141.130    
          141.366         141.604         134.241         134.339         134.437         134.539         134.646         134.757         134.868         134.986    
          135.109         135.244         135.395         135.576         135.825         136.007         136.194         136.378         136.552         136.704    
          136.833         136.952         136.994         137.059         137.113         137.163         137.212         137.258         137.334         137.376    
          137.418         137.423         137.465         137.482         137.523         137.525         137.571         137.649         137.763         137.831    
          137.879         137.859         137.924         137.948         137.997         137.988         138.041         138.067         138.133         138.109    
          138.163         138.246         138.369         138.495         138.649         138.802         138.941         139.072         139.226         139.391    
          139.591         139.756         139.996         140.229         140.379         140.506         140.609         140.693         140.768         140.830    
          140.908         140.958         140.873         134.298         134.413         134.527         134.649         134.778         134.907         135.044    
          135.194         135.355         135.568         135.811         135.996         136.186         136.377         136.562         136.732         136.879    
          137.003         137.105         137.188         137.258         137.278         137.308         137.350         137.395         137.459         137.533    
          137.582         137.627         137.628         137.675         137.680         137.723         137.727         137.775         137.793         137.838    
          137.837         137.886         137.911         137.975         137.959         138.010         138.088         138.212         138.337         138.467    
          138.626         138.774         138.914         139.053         139.187         139.365         139.566         139.798         140.087         140.270    
          140.435         140.580         140.695         140.775         140.818         140.873         140.875         141.154         134.360         134.497    
          134.641         134.794         134.946         135.121         135.304         135.546         135.794         135.987         136.183         136.380    
          136.576         136.762         136.929         137.072         137.189         137.286         137.366         137.427         137.475         137.490    
          137.506         137.545         137.598         137.670         137.748         137.853         137.973         138.092         138.207         138.334    
          138.457         138.610         138.747         138.877         139.022         139.160         139.291         139.521         139.902         140.122    
          140.325         140.509         140.674         140.821         140.932         140.988         140.945         141.741         134.427         134.605    
          134.795         135.008         135.224         135.469         135.765         135.972         136.179         136.386         136.592         136.794    
          136.982         137.146         137.283         137.394         137.485         137.561         137.622         137.668         137.705         137.712    
          137.736         137.763         137.843         137.926         138.021         138.130         138.247         138.363         138.489         138.606    
          138.738         138.863         138.983         139.140         139.306         139.447         139.883         140.135         140.372         140.586    
          140.775         140.938         142.139         142.310         142.439         134.502         134.781         135.056         135.359         135.720    
          135.943         136.164         136.385         136.605         136.822         137.032         137.222         137.382         137.511         137.614    
          137.700         137.773         137.844         137.904         137.947         137.981         138.024         138.102         138.205         138.305    
          138.405         138.493         138.567         138.656         138.748         138.827         138.939         139.036         139.176         139.364    
          139.603         139.770         140.541         141.063         141.500         141.907         142.213         142.486         134.664         135.108    
          135.572         135.897         136.132         136.366         136.602         136.839         137.070         137.290         137.482         137.639    
          137.758         137.849         137.932         137.995         138.101         138.952         138.887         138.767         138.727         138.807    
          139.084         139.116         139.158         139.211         139.233         139.309         139.350         139.334         139.419         139.448    
          139.623         139.880         140.127         140.240         135.164         135.832         136.091         136.329         136.574         136.829    
          137.085         137.335         137.570         137.767         137.923         138.028         138.095         138.189         138.187         139.502    
          136.071         136.300         136.527         136.782         137.061         137.344         137.625         137.883         138.098         138.255    
          138.339         138.322         139.928         136.606         137.068         137.581         138.152         138.575         139.103         139.450    
          139.750         139.963         140.100    
1
  HEAD IN LAYER   2 AT END OF TIME STEP   1 IN STRESS PERIOD    2
  ---------------------------------------------------------------------------

                1               2               3               4               5               6               7               8               9              10
               11              12              13              14              15              16              17              18              19              20
               21              22              23              24              25              26              27              28              29              30
               31              32              33              34              35              36              37              38              39              40
               41              42              43              44              45              46              47              48              49              50
               51              52              53              54              55              56              57              58              59              60
               61              62              63              64              65              66              67              68              69              70
               71              72              73              74              75              76              77              78              79              80
               81              82              83              84              85              86              87              88              89              90
               91              92              93              94              95              96              97              98              99             100
              101             102             103             104             105             106             107             108             109             110
              111             112             113             114             115             116             117             118             119             120
              121             122             123             124             125             126             127             128             129             130
              131             132             133             134             135             136             137             138             139             140
              141             142             143             144             145             146             147             148             149             150
              151             152             153             154             155             156             157             158             159             160
              161             162             163             164             165             166             167             168             169             170
              171             172             173             174             175             176             177             178             179             180
              181             182             183             184             185             186             187             188             189             190
              191             192             193             194             195             196             197             198             199             200
              201             202             203             204             205             206             207             208             209             210
              211             212             213             214             215             216             217             218             219             220
              221             222             223             224             225             226             227             228             229             230
              231             232             233             234             235             236             237             238             239             240
              241             242             243             244             245             246             247             248             249             250
              251             252             253             254             255             256             257             258             259             260
              261             262             263             264             265             266             267             268             269             270
              271             272             273             274             275             276             277             278             279             280
              281             282             283             284             285             286             287             288             289             290
              291             292             293             294             295             296             297             298             299             300
              301             302             303             304             305             306             307             308             309             310
              311             312             313             314             315             316             317             318             319             320
              321             322             323             324             325             326             327             328             329             330
              331             332             333             334             335             336             337             338             339             340
              341             342             343             344             345             346             347             348             349             350
              351             352             353             354             355             356             357             358             359             360
              361             362             363             364             365             366             367             368             369             370
              371             372             373             374             375             376             377             378             379             380
              381             382             383             384             385             386             387             388             389             390
              391             392             393             394             395             396             397             398             399             400
              401             402             403             404             405             406             407             408             409             410
              411             412             413             414             415             416             417             418             419             420
              421             422             423             424             425             426             427             428             429             430
              431             432             433             434             435             436             437             438             439             440
              441             442             443             444             445             446             447             448             449             450
              451             452             453             454             455             456             457             458             459             460
              461             462             463             464             465             466             467             468             469             470
              471             472             473             474             475             476             477             478             479             480
              481             482             483             484             485             486             487             488             489             490
              491             492             493             494             495             496             497             498             499             500
              501             502             503             504             505             506             507             508             509             510
              511             512             513             514             515             516             517             518             519             520
              521             522             523             524             525             526             527             528             529             530
              531             532             533             534             535             536             537             538             539             540
              541             542             543             544             545             546             547             548             549             550
              551             552             553             554             555             556             557             558             559             560
              561             562             563             564             565             566             567             568             569             570
              571             572             573             574             575             576             577             578             579             580
              581             582             583             584             585             586             587             588             589             590
              591             592             593             594             595             596             597             598             599             600
              601             602             603             604             605             606             607             608             609             610
              611             612             613             614             615             616             617             618             619             620
              621             622             623             624             625             626             627             628             629             630
              631             632             633             634             635             636             637             638             639             640
              641             642             643             644             645             646             647             648             649             650
              651             652             653             654             655             656             657             658             659             660
              661             662             663             664             665             666             667             668             669             670
              671             672             673             674             675             676             677             678             679             680
              681             682             683             684             685             686             687             688             689             690
              691             692             693             694             695             696             697             698             699             700
              701             702             703             704             705             706             707             708             709             710
              711             712             713             714             715             716             717             718             719             720
              721             722             723             724             725             726             727             728             729             730
              731             732             733             734             735             736             737             738             739             740
              741             742             743             744             745             746             747             748             749             750
              751             752             753             754             755             756             757             758             759             760
              761             762             763             764             765             766             767             768             769             770
              771             772             773             774             775             776             777             778             779             780
              781             782             783             784             785             786             787             788             789             790
              791             792             793             794             795             796             797             798             799             800
              801             802             803             804             805             806             807             808             809             810
              811             812             813             814             815             816             817             818             819             820
              821             822             823             824             825             826             827             828             829             830
              831             832             833             834             835             836             837             838             839             840
              841             842             843             844             845             846             847             848             849             850
              851             852             853             854             855             856             857             858             859             860
              861             862             863             864             865             866             867             868             869             870
              871             872             873             874             875             876             877             878             879             880
              881             882             883             884             885             886             887             888             889             890
              891             892             893             894             895             896             897             898             899             900
              901             902             903             904             905             906             907             908             909             910
              911             912             913             914             915             916             917             918             919             920
              921             922             923             924             925             926             927             928             929             930
              931             932             933             934             935             936             937             938             939             940
              941             942             943             944             945             946             947             948             949             950
              951             952             953             954             955             956             957             958             959             960
              961             962             963             964             965             966             967             968             969             970
              971             972             973             974             975             976             977             978             979             980
              981             982             983             984             985             986             987             988             989             990
              991             992             993             994             995             996             997             998             999            1000
             1001            1002            1003            1004            1005            1006            1007            1008            1009            1010
             1011            1012            1013            1014            1015            1016            1017            1018            1019            1020
             1021            1022            1023            1024            1025            1026            1027            1028            1029            1030
             1031            1032            1033            1034            1035            1036            1037            1038            1039            1040
             1041            1042            1043            1044            1045            1046            1047            1048            1049            1050
             1051            1052            1053            1054            1055            1056            1057            1058            1059            1060
             1061            1062            1063            1064            1065            1066            1067            1068            1069            1070
             1071            1072            1073            1074            1075            1076            1077            1078            1079            1080
             1081            1082            1083            1084            1085            1086            1087            1088            1089            1090
             1091            1092            1093            1094            1095            1096            1097            1098            1099            1100
             1101            1102            1103            1104            1105            1106            1107            1108            1109            1110
             1111            1112            1113            1114            1115            1116            1117            1118            1119            1120
             1121            1122            1123            1124            1125            1126            1127            1128            1129            1130
             1131            1132            1133            1134            1135            1136            1137            1138            1139            1140
             1141            1142            1143            1144            1145            1146            1147            1148            1149            1150
             1151            1152            1153            1154            1155            1156            1157            1158            1159            1160
             1161            1162            1163            1164            1165            1166            1167            1168            1169            1170
             1171            1172            1173            1174            1175            1176            1177            1178            1179            1180
             1181            1182            1183            1184            1185            1186            1187            1188            1189            1190
             1191            1192            1193            1194            1195            1196            1197            1198            1199            1200
             1201            1202            1203            1204            1205            1206            1207            1208            1209            1210
             1211            1212            1213            1214            1215            1216            1217            1218            1219            1220
             1221            1222            1223            1224            1225            1226            1227            1228            1229            1230
             1231            1232            1233            1234            1235            1236            1237            1238            1239            1240
             1241            1242            1243            1244            1245            1246            1247            1248            1249            1250
             1251            1252            1253            1254            1255            1256            1257            1258            1259            1260
             1261            1262            1263            1264            1265            1266            1267            1268            1269            1270
             1271            1272            1273            1274            1275            1276            1277            1278            1279            1280
             1281            1282            1283            1284            1285            1286            1287            1288            1289            1290
             1291            1292            1293            1294            1295            1296            1297            1298            1299            1300
             1301            1302            1303            1304            1305            1306            1307            1308            1309            1310
             1311            1312            1313            1314            1315            1316            1317            1318            1319            1320
             1321            1322            1323            1324            1325            1326            1327            1328            1329            1330
             1331            1332            1333            1334            1335            1336            1337            1338            1339            1340
             1341            1342            1343            1344            1345            1346            1347            1348            1349            1350
             1351            1352            1353            1354            1355            1356            1357            1358            1359            1360
             1361            1362            1363            1364            1365            1366            1367            1368            1369            1370
             1371            1372            1373            1374            1375            1376            1377            1378            1379            1380
             1381            1382            1383            1384            1385            1386            1387            1388            1389            1390
             1391            1392            1393            1394            1395            1396            1397            1398            1399            1400
             1401            1402            1403            1404            1405            1406            1407            1408            1409            1410
             1411            1412            1413            1414            1415            1416            1417            1418            1419            1420
             1421            1422            1423            1424            1425            1426            1427            1428            1429            1430
             1431            1432            1433            1434            1435            1436            1437            1438            1439            1440
             1441            1442            1443            1444            1445            1446            1447            1448            1449            1450
             1451            1452            1453            1454            1455            1456            1457            1458            1459            1460
             1461            1462            1463            1464            1465            1466            1467            1468            1469            1470
             1471            1472            1473            1474            1475            1476            1477            1478            1479            1480
             1481            1482            1483            1484            1485            1486            1487            1488            1489            1490
             1491            1492            1493            1494            1495            1496            1497            1498            1499            1500
             1501            1502            1503            1504            1505            1506            1507            1508            1509            1510
             1511            1512            1513            1514            1515            1516            1517            1518            1519            1520
             1521            1522            1523            1524            1525            1526            1527            1528            1529            1530
             1531            1532            1533            1534            1535            1536            1537            1538            1539            1540
             1541            1542            1543            1544            1545            1546            1547            1548            1549            1550
             1551            1552            1553            1554            1555            1556            1557            1558            1559            1560
             1561            1562            1563            1564            1565            1566            1567            1568            1569            1570
             1571            1572            1573            1574            1575            1576            1577            1578            1579            1580
             1581            1582            1583            1584            1585            1586            1587            1588            1589            1590
             1591            1592            1593            1594            1595            1596            1597            1598            1599            1600
             1601            1602            1603            1604            1605            1606            1607            1608            1609            1610
             1611            1612            1613            1614            1615            1616            1617            1618            1619            1620
             1621            1622            1623            1624            1625            1626            1627            1628            1629            1630
             1631            1632            1633            1634            1635            1636            1637            1638            1639            1640
             1641            1642            1643            1644            1645            1646            1647            1648            1649            1650
             1651            1652            1653            1654            1655            1656            1657            1658            1659            1660
             1661            1662            1663            1664            1665            1666            1667            1668            1669            1670
             1671            1672            1673            1674            1675            1676            1677            1678            1679            1680
             1681            1682            1683            1684            1685            1686            1687            1688            1689            1690
             1691            1692            1693            1694            1695            1696            1697            1698            1699            1700
             1701            1702            1703            1704            1705            1706            1707            1708            1709            1710
             1711            1712            1713            1714            1715            1716            1717            1718            1719            1720
             1721            1722            1723            1724            1725            1726            1727            1728            1729            1730
             1731            1732            1733            1734            1735            1736            1737            1738            1739            1740
             1741            1742            1743            1744            1745            1746            1747            1748            1749            1750
             1751            1752            1753            1754            1755            1756            1757            1758            1759            1760
             1761            1762            1763            1764            1765            1766            1767            1768            1769            1770
             1771            1772            1773            1774            1775            1776            1777            1778            1779            1780
             1781            1782            1783            1784            1785            1786            1787            1788            1789            1790
             1791            1792            1793            1794            1795            1796            1797            1798            1799            1800
             1801            1802            1803            1804            1805            1806            1807            1808            1809            1810
             1811            1812            1813            1814            1815            1816            1817            1818            1819            1820
             1821            1822            1823            1824            1825            1826            1827            1828            1829            1830
             1831            1832            1833            1834            1835            1836            1837            1838            1839            1840
             1841            1842            1843            1844            1845            1846            1847            1848            1849            1850
             1851            1852            1853            1854            1855            1856            1857            1858            1859            1860
             1861            1862            1863            1864            1865            1866            1867            1868            1869            1870
             1871            1872            1873            1874            1875            1876            1877            1878            1879            1880
             1881            1882            1883            1884            1885            1886            1887            1888            1889            1890
             1891            1892            1893            1894            1895            1896            1897            1898            1899            1900
             1901            1902            1903            1904            1905            1906            1907            1908            1909            1910
             1911            1912            1913            1914            1915            1916            1917            1918            1919            1920
             1921            1922            1923            1924            1925            1926            1927            1928            1929            1930
             1931            1932            1933            1934            1935            1936            1937            1938            1939            1940
             1941            1942            1943            1944            1945            1946            1947            1948            1949            1950
             1951            1952            1953            1954            1955            1956            1957            1958            1959            1960
             1961            1962            1963            1964            1965            1966            1967            1968            1969            1970
             1971            1972            1973            1974            1975            1976            1977            1978            1979            1980
             1981            1982            1983            1984            1985            1986            1987            1988            1989            1990
             1991            1992            1993            1994            1995            1996            1997            1998            1999            2000
             2001            2002            2003            2004            2005            2006            2007            2008            2009            2010
             2011            2012            2013            2014            2015            2016            2017            2018            2019            2020
             2021            2022            2023            2024            2025            2026            2027            2028            2029            2030
             2031            2032            2033            2034            2035            2036            2037            2038            2039            2040
             2041            2042            2043            2044            2045            2046            2047            2048            2049            2050
             2051            2052            2053            2054            2055            2056            2057            2058            2059            2060
             2061            2062            2063            2064            2065            2066            2067            2068            2069            2070
             2071            2072            2073            2074            2075            2076            2077            2078            2079            2080
             2081            2082            2083            2084            2085            2086            2087            2088            2089            2090
             2091            2092            2093            2094            2095            2096            2097            2098            2099            2100
             2101            2102            2103            2104            2105            2106            2107            2108            2109            2110
             2111            2112            2113            2114            2115            2116            2117            2118            2119            2120
             2121            2122            2123            2124            2125            2126            2127            2128            2129            2130
             2131            2132            2133            2134            2135            2136            2137            2138            2139            2140
             2141            2142            2143            2144            2145            2146            2147            2148            2149            2150
             2151            2152            2153            2154            2155            2156            2157            2158            2159            2160
             2161            2162            2163            2164            2165            2166            2167            2168            2169            2170
             2171            2172            2173            2174            2175            2176            2177            2178            2179            2180
             2181            2182            2183            2184            2185            2186            2187            2188            2189            2190
             2191            2192            2193            2194            2195            2196            2197            2198            2199            2200
             2201            2202            2203            2204            2205            2206            2207            2208            2209            2210
             2211            2212            2213            2214            2215            2216            2217            2218            2219            2220
             2221            2222            2223            2224            2225            2226            2227            2228            2229            2230
             2231            2232            2233            2234            2235            2236            2237            2238            2239            2240
             2241            2242            2243            2244            2245            2246            2247            2248            2249            2250
             2251            2252            2253            2254            2255            2256            2257            2258            2259            2260
             2261            2262            2263            2264            2265            2266            2267            2268            2269            2270
             2271            2272            2273            2274            2275            2276            2277            2278            2279            2280
             2281            2282            2283            2284            2285            2286            2287            2288            2289            2290
             2291            2292            2293            2294            2295            2296            2297            2298            2299            2300
             2301            2302            2303            2304            2305            2306            2307            2308            2309            2310
             2311            2312            2313            2314            2315            2316            2317            2318            2319            2320
             2321            2322            2323            2324            2325            2326            2327            2328            2329            2330
             2331            2332            2333            2334            2335            2336            2337            2338            2339            2340
             2341            2342            2343            2344            2345            2346            2347            2348            2349            2350
             2351            2352            2353            2354            2355            2356            2357            2358            2359            2360
             2361            2362            2363            2364            2365            2366            2367            2368            2369            2370
             2371            2372            2373            2374            2375            2376            2377            2378            2379            2380
             2381            2382            2383            2384            2385            2386            2387            2388            2389            2390
             2391            2392            2393            2394            2395            2396            2397            2398            2399            2400
             2401            2402            2403            2404            2405            2406            2407            2408            2409            2410
             2411            2412            2413            2414            2415            2416            2417            2418            2419            2420
             2421            2422            2423            2424            2425            2426            2427            2428            2429            2430
             2431            2432            2433            2434            2435            2436            2437            2438            2439            2440
             2441            2442            2443            2444            2445            2446            2447            2448            2449            2450
             2451            2452            2453            2454            2455            2456            2457            2458            2459            2460
             2461            2462            2463            2464            2465            2466            2467            2468            2469            2470
             2471            2472            2473            2474            2475            2476            2477            2478            2479            2480
             2481            2482            2483            2484            2485            2486            2487            2488            2489            2490
             2491            2492            2493            2494            2495            2496            2497            2498            2499            2500
             2501            2502            2503            2504            2505            2506            2507            2508            2509            2510
             2511            2512            2513            2514            2515            2516            2517            2518            2519            2520
             2521            2522            2523            2524            2525            2526            2527            2528            2529            2530
             2531            2532            2533            2534            2535            2536            2537            2538            2539            2540
             2541            2542            2543            2544            2545            2546            2547            2548            2549            2550
             2551            2552            2553            2554            2555            2556            2557            2558            2559            2560
             2561            2562            2563            2564            2565            2566            2567            2568            2569            2570
             2571            2572            2573            2574            2575            2576            2577            2578            2579            2580
             2581            2582            2583            2584            2585            2586            2587            2588            2589            2590
             2591            2592            2593            2594            2595            2596            2597            2598            2599            2600
             2601            2602            2603            2604            2605            2606            2607            2608            2609            2610
             2611            2612            2613            2614            2615            2616            2617            2618            2619            2620
             2621            2622            2623            2624            2625            2626            2627            2628            2629            2630
             2631            2632            2633            2634            2635            2636            2637            2638            2639            2640
             2641            2642            2643            2644            2645            2646            2647            2648            2649            2650
             2651            2652            2653            2654            2655            2656            2657            2658            2659            2660
             2661            2662            2663            2664            2665            2666            2667            2668            2669            2670
             2671            2672            2673            2674            2675            2676            2677            2678            2679            2680
             2681            2682            2683            2684            2685            2686            2687            2688            2689            2690
             2691            2692            2693            2694            2695            2696            2697            2698            2699            2700
             2701            2702            2703            2704            2705            2706            2707            2708            2709            2710
             2711            2712            2713            2714            2715            2716            2717            2718            2719            2720
             2721            2722            2723            2724            2725            2726            2727            2728            2729            2730
             2731            2732            2733            2734            2735            2736            2737            2738            2739            2740
             2741            2742            2743            2744            2745            2746            2747            2748            2749            2750
             2751            2752            2753            2754            2755            2756            2757            2758            2759            2760
             2761            2762            2763            2764            2765            2766            2767            2768            2769            2770
             2771            2772            2773            2774            2775            2776            2777            2778            2779            2780
             2781            2782            2783            2784            2785            2786            2787            2788            2789            2790
             2791            2792            2793            2794            2795            2796            2797            2798            2799            2800
             2801            2802            2803            2804            2805            2806            2807            2808            2809            2810
             2811            2812            2813            2814            2815            2816            2817            2818            2819            2820
             2821            2822            2823            2824            2825            2826            2827            2828            2829            2830
             2831            2832            2833            2834            2835            2836            2837            2838            2839            2840
             2841            2842            2843            2844            2845            2846            2847            2848            2849            2850
             2851            2852            2853            2854            2855            2856            2857            2858            2859            2860
             2861            2862            2863            2864            2865            2866            2867            2868            2869            2870
             2871            2872            2873            2874            2875            2876            2877            2878            2879            2880
             2881            2882            2883            2884            2885            2886            2887            2888            2889            2890
             2891            2892            2893            2894            2895            2896            2897            2898            2899            2900
             2901            2902            2903            2904            2905            2906            2907            2908            2909            2910
             2911            2912            2913            2914            2915            2916            2917            2918            2919            2920
             2921            2922            2923            2924            2925            2926            2927            2928            2929            2930
             2931            2932            2933            2934            2935            2936            2937            2938            2939            2940
             2941            2942            2943            2944            2945            2946            2947            2948            2949            2950
             2951            2952            2953            2954            2955            2956            2957            2958            2959            2960
             2961            2962            2963            2964            2965            2966            2967            2968            2969            2970
             2971            2972            2973            2974            2975            2976            2977            2978            2979            2980
             2981            2982            2983            2984            2985            2986            2987            2988            2989            2990
             2991            2992            2993            2994            2995            2996            2997            2998            2999            3000
             3001            3002            3003            3004            3005            3006            3007            3008            3009            3010
             3011            3012            3013            3014            3015            3016            3017            3018            3019            3020
             3021            3022            3023            3024            3025            3026            3027            3028            3029            3030
             3031            3032            3033            3034            3035            3036            3037            3038            3039            3040
             3041            3042            3043            3044            3045            3046            3047            3048            3049            3050
             3051            3052            3053            3054            3055            3056            3057            3058            3059            3060
             3061            3062            3063            3064            3065            3066            3067            3068            3069            3070
             3071            3072            3073            3074            3075            3076            3077            3078            3079            3080
             3081            3082            3083            3084            3085            3086            3087            3088            3089            3090
             3091            3092            3093            3094            3095            3096            3097            3098            3099            3100
             3101            3102            3103            3104            3105            3106            3107            3108            3109            3110
             3111            3112            3113            3114            3115            3116            3117            3118            3119            3120
             3121            3122            3123            3124            3125            3126            3127            3128            3129            3130
             3131            3132            3133            3134            3135            3136            3137            3138            3139            3140
             3141            3142            3143            3144            3145            3146            3147            3148            3149            3150
             3151            3152            3153            3154            3155            3156            3157            3158            3159            3160
             3161            3162            3163            3164            3165            3166            3167            3168            3169            3170
             3171            3172            3173            3174            3175            3176            3177            3178            3179            3180
             3181            3182            3183            3184            3185            3186            3187            3188            3189            3190
             3191            3192            3193            3194            3195            3196            3197            3198            3199            3200
             3201            3202            3203            3204            3205            3206            3207            3208            3209            3210
             3211            3212            3213            3214            3215            3216            3217            3218            3219            3220
             3221            3222            3223            3224            3225            3226            3227            3228            3229            3230
             3231            3232            3233            3234            3235            3236            3237            3238            3239            3240
             3241            3242            3243            3244            3245            3246            3247            3248            3249            3250
             3251            3252            3253            3254            3255            3256            3257            3258            3259            3260
             3261            3262            3263            3264            3265            3266            3267            3268            3269            3270
             3271            3272            3273            3274            3275            3276            3277            3278            3279            3280
             3281            3282            3283            3284            3285            3286            3287            3288            3289            3290
             3291            3292            3293            3294            3295            3296            3297            3298            3299            3300
             3301            3302            3303            3304            3305            3306            3307            3308            3309            3310
             3311            3312            3313            3314            3315            3316            3317            3318            3319            3320
             3321            3322            3323            3324            3325            3326            3327            3328            3329            3330
             3331            3332            3333            3334            3335            3336            3337            3338            3339            3340
             3341            3342            3343            3344            3345            3346            3347            3348            3349            3350
             3351            3352            3353            3354            3355            3356            3357            3358            3359            3360
             3361            3362            3363            3364            3365            3366            3367            3368            3369            3370
             3371            3372            3373            3374            3375            3376            3377            3378            3379            3380
             3381            3382            3383            3384            3385            3386            3387            3388            3389            3390
             3391            3392            3393            3394            3395            3396            3397            3398            3399            3400
             3401            3402            3403            3404            3405            3406            3407            3408            3409            3410
             3411            3412            3413            3414            3415            3416            3417            3418            3419            3420
             3421            3422            3423            3424            3425            3426            3427            3428            3429            3430
             3431            3432            3433            3434            3435            3436            3437            3438            3439            3440
             3441            3442            3443            3444            3445            3446            3447            3448            3449            3450
             3451            3452            3453            3454            3455            3456            3457            3458            3459            3460
             3461            3462            3463            3464            3465            3466            3467            3468            3469            3470
             3471            3472            3473            3474            3475            3476            3477            3478            3479            3480
             3481            3482            3483            3484            3485            3486            3487            3488            3489            3490
             3491            3492            3493            3494            3495            3496            3497            3498            3499            3500
             3501            3502            3503            3504            3505            3506            3507            3508            3509            3510
             3511            3512            3513            3514            3515            3516            3517            3518            3519            3520
             3521            3522            3523            3524            3525            3526            3527            3528            3529            3530
             3531            3532            3533            3534            3535            3536            3537            3538            3539            3540
             3541            3542            3543            3544            3545            3546            3547            3548            3549            3550
             3551            3552            3553            3554            3555            3556            3557            3558            3559            3560
             3561            3562            3563            3564            3565            3566            3567            3568            3569            3570
             3571            3572            3573            3574            3575            3576            3577            3578            3579            3580
             3581            3582            3583            3584            3585            3586            3587            3588            3589            3590
             3591            3592            3593            3594            3595            3596            3597            3598            3599            3600
             3601            3602            3603            3604            3605            3606            3607            3608            3609            3610
             3611            3612            3613            3614            3615            3616            3617            3618            3619            3620
             3621            3622            3623            3624            3625            3626            3627            3628            3629            3630
             3631            3632            3633            3634            3635            3636            3637            3638            3639            3640
             3641            3642            3643            3644            3645            3646            3647            3648            3649            3650
             3651            3652            3653            3654            3655            3656            3657            3658            3659            3660
             3661            3662            3663            3664            3665            3666            3667            3668            3669            3670
             3671            3672            3673            3674            3675            3676            3677            3678            3679            3680
             3681            3682            3683            3684            3685            3686            3687            3688            3689            3690
             3691            3692            3693            3694            3695            3696            3697            3698            3699            3700
             3701            3702            3703            3704            3705            3706            3707            3708            3709            3710
             3711            3712            3713            3714            3715            3716            3717            3718            3719            3720
             3721            3722            3723            3724            3725            3726            3727            3728            3729            3730
             3731            3732            3733            3734            3735            3736            3737            3738            3739            3740
             3741            3742            3743            3744            3745            3746            3747            3748            3749            3750
             3751            3752            3753            3754            3755            3756            3757            3758            3759            3760
             3761            3762            3763            3764            3765            3766            3767            3768            3769            3770
             3771            3772            3773            3774            3775            3776            3777            3778            3779            3780
             3781            3782            3783
 ................................................................................................................................................................
   1      133.708         133.699         133.676         133.642         133.619         133.611         133.612         133.603         133.611         133.647    
          133.700         133.761         133.823         133.887         133.951         134.014         134.075         134.135         134.193         134.250    
          134.304         134.351         134.384         133.686         133.691         133.683         133.663         133.632         133.606         133.594    
          133.605         133.593         133.589         133.593         133.584         133.586         133.615         133.665         133.724         133.788    
          133.854         133.921         133.987         134.052         134.116         134.178         134.239         134.298         134.354         134.407    
          134.459         133.670         133.676         133.678         133.671         133.654         133.630         133.602         133.587         133.585    
          133.590         133.587         133.591         133.602         133.588         133.594         133.625         133.644         133.610         133.632    
          133.679         133.742         133.810         133.881         133.952         134.022         134.091         134.158         134.223         134.288    
          134.351         134.414         134.476         134.529         133.660         133.665         133.669         133.669         133.664         133.652    
          133.634         133.615         133.599         133.592         133.600         133.616         133.597         133.606         133.639         133.658    
          133.623         133.646         133.696         133.765         133.840         133.916         133.992         134.064         134.136         134.205    
          134.275         134.344         134.414         134.483         134.547         134.601         133.651         133.656         133.661         133.665    
          133.666         133.662         133.654         133.643         133.630         133.617         133.608         133.605         133.614         133.631    
          133.613         133.623         133.657         133.679         133.643         133.668         133.723         133.801         133.883         133.963    
          134.039         134.113         134.186         134.259         134.333         134.408         134.484         134.557         134.626         134.685    
          133.641         133.647         133.653         133.659         133.663         133.666         133.665         133.661         133.655         133.647    
          133.638         133.631         133.626         133.626         133.637         133.657         133.639         133.652         133.686         133.714    
          133.676         133.707         133.770         133.858         133.941         134.018         134.092         134.165         134.240         134.318    
          134.398         134.480         134.563         134.643         134.719         134.787         133.629         133.636         133.644         133.651    
          133.658         133.664         133.668         133.670         133.670         133.668         133.665         133.661         133.658         133.655    
          133.655         133.662         133.677         133.702         133.687         133.706         133.741         133.776         133.740         133.779    
          133.846         133.928         134.000         134.071         134.143         134.219         134.299         134.384         134.473         134.563    
          134.655         134.746         134.835         134.920         133.613         133.623         133.632         133.642         133.651         133.659    
          133.667         133.673         133.678         133.681         133.683         133.684         133.685         133.686         133.689         133.693    
          133.704         133.726         133.753         133.790         133.773         133.804         133.836         133.869         133.845         133.879    
          133.926         133.989         134.052         134.119         134.193         134.275         134.365         134.461         134.560         134.661    
          134.766         134.875         134.987         135.102         133.596         133.607         133.618         133.627         133.632         133.626    
          133.631         133.640         133.651         133.661         133.671         133.679         133.686         133.693         133.698         133.704    
          133.709         133.715         133.723         133.734         133.750         133.777         133.821         133.860         133.889         133.871    
          133.896         133.920         133.942         133.925         133.946         133.972         133.994         133.972         133.992         134.025    
          134.049         134.018         134.044         134.093         134.163         134.247         134.342         134.444         134.550         134.661    
          134.777         134.902         135.040         135.199         135.410         135.590         135.743         135.877         136.000         136.112    
          136.216         136.314         136.409         136.501         136.592         136.682         136.771         136.860         136.951         137.042    
          137.135         137.228         137.323         137.420         137.520         137.623         137.733         137.854         137.979         138.096    
          138.210         138.331         138.463         138.604         138.749         138.910         139.079         139.262         139.471         139.668    
          133.594         133.604         133.613         133.618         133.613         133.618         133.624         133.626         133.623         133.626    
          133.631         133.625         133.630         133.640         133.653         133.664         133.676         133.686         133.696         133.705    
          133.714         133.723         133.733         133.743         133.756         133.771         133.791         133.819         133.856         133.900    
          133.944         133.985         134.016         134.038         134.017         134.035         134.065         134.088         134.059         134.080    
          134.123         134.154         134.110         134.144         134.215         134.316         134.423         134.535         134.652         134.776    
          134.910         135.057         135.217         135.393         135.559         135.708         135.840         135.962         136.074         136.179    
          136.279         136.374         136.467         136.559         136.650         136.740         136.831         136.923         137.017         137.113    
          137.210         137.311         137.414         137.520         137.630         137.747         137.869         137.994         138.116         138.238    
          138.365         138.502         138.649         138.809         138.975         139.156         139.369         139.636         139.949         140.328    
          133.593         133.602         133.614         133.627         133.641         133.655         133.669         133.682         133.694         133.706    
          133.718         133.730         133.742         133.755         133.769         133.785         133.804         133.826         133.854         133.887    
          133.924         133.961         133.997         134.032         134.069         134.104         134.134         134.104         134.132         134.189    
          134.289         134.400         134.515         134.635         134.764         134.901         135.048         135.203         135.361         135.516    
          135.659         135.789         135.909         136.021         136.127         136.227         136.324         136.418         136.512         136.605    
          136.697         136.791         136.886         136.984         137.085         137.188         137.295         137.406         137.519         137.636    
          137.758         137.883         138.010         138.137         138.265         138.399         138.542         138.697         138.867         139.041    
          139.232         139.464         139.756         140.075         140.409         140.735         133.593         133.601         133.614         133.629    
          133.643         133.659         133.673         133.688         133.703         133.717         133.731         133.746         133.760         133.776    
          133.793         133.812         133.832         133.856         133.884         133.914         133.947         133.981         134.015         134.049    
          134.084         134.111         134.135         134.119         134.139         134.166         134.196         134.168         134.201         134.267    
          134.375         134.490         134.612         134.741         134.878         135.024         135.174         135.323         135.469         135.606    
          135.733         135.852         135.963         136.069         136.171         136.269         136.364         136.460         136.555         136.651    
          136.748         136.847         136.950         137.056         137.165         137.278         137.397         137.517         137.640         137.766    
          137.895         138.024         138.157         138.291         138.430         138.580         138.744         138.916         139.096         139.292    
          139.528         139.818         140.112         140.427         140.758         141.020         133.593         133.602         133.615         133.631    
          133.647         133.663         133.679         133.695         133.711         133.727         133.744         133.761         133.778         133.796    
          133.815         133.835         133.858         133.883         133.910         133.940         133.971         134.004         134.036         134.069    
          134.104         134.144         134.177         134.206         134.185         134.209         134.243         134.278         134.242         134.279    
          134.352         134.462         134.582         134.710         134.846         134.991         135.138         135.281         135.422         135.554    
          135.678         135.795         135.905         136.010         136.113         136.212         136.310         136.408         136.506         136.605    
          136.706         136.810         136.917         137.029         137.143         137.263         137.389         137.516         137.643         137.773    
          137.904         138.036         138.173         138.316         138.459         138.616         138.782         138.956         139.138         139.333    
          139.568         139.839         140.118         140.412         140.713         140.990         141.198         133.594         133.604         133.617    
          133.633         133.650         133.668         133.685         133.702         133.720         133.738         133.756         133.775         133.794    
          133.814         133.835         133.857         133.881         133.906         133.934         133.964         133.994         134.026         134.059    
          134.092         134.127         134.165         134.209         134.247         134.280         134.253         134.279         134.321         134.357    
          134.314         134.354         134.430         134.546         134.673         134.807         134.953         135.099         135.239         135.376    
          135.504         135.626         135.740         135.849         135.954         136.057         136.157         136.257         136.357         136.459    
          136.561         136.667         136.775         136.888         137.004         137.125         137.250         137.382         137.514         137.646    
          137.778         137.911         138.047         138.190         138.338         138.487         138.645         138.812         138.987         139.170    
          139.364         139.595         139.848         140.105         140.373         140.648         140.919         141.152         141.330         133.596    
          133.606         133.620         133.637         133.654         133.673         133.691         133.710         133.729         133.748         133.768    
          133.788         133.809         133.831         133.853         133.877         133.902         133.928         133.956         133.986         134.017    
          134.049         134.082         134.115         134.150         134.187         134.228         134.274         134.314         134.347         134.316    
          134.341         134.389         134.427         134.377         134.419         134.505         134.630         134.766         134.913         135.059    
          135.198         135.332         135.458         135.577         135.689         135.796         135.901         136.003         136.105         136.207    
          136.309         136.414         136.521         136.631         136.745         136.862         136.984         137.109         137.240         137.376    
          137.513         137.648         137.782         137.918         138.057         138.205         138.358         138.513         138.672         138.836    
          139.006         139.192         139.396         139.621         139.851         140.084         140.329         140.581         140.833         141.070    
          141.280         141.427         133.599         133.608         133.623         133.640         133.659         133.678         133.698         133.718    
          133.738         133.758         133.779         133.801         133.823         133.846         133.870         133.895         133.921         133.949    
          133.978         134.008         134.039         134.072         134.105         134.139         134.175         134.211         134.250         134.290    
          134.333         134.373         134.409         134.374         134.401         134.458         134.501         134.443         134.492         134.588    
          134.727         134.873         135.021         135.160         135.291         135.415         135.531         135.642         135.747         135.850    
          135.952         136.055         136.158         136.263         136.372         136.483         136.598         136.718         136.841         136.967    
          137.097         137.232         137.372         137.512         137.649         137.787         137.925         138.068         138.220         138.377    
          138.535         138.696         138.859         139.025         139.210         139.423         139.640         139.846         140.062         140.289    
          140.523         140.761         140.957         141.052         140.919         141.027         141.207         141.380         133.602         133.611    
          133.626         133.644         133.664         133.684         133.704         133.725         133.746         133.768         133.790         133.813    
          133.837         133.861         133.886         133.912         133.939         133.968         133.998         134.029         134.061         134.095    
          134.129         134.164         134.200         134.237         134.275         134.313         134.352         134.394         134.438         134.481    
          134.441         134.470         134.487         134.471         134.487         134.540         134.592         134.527         134.587         134.697    
          134.818         134.879         134.803         134.873         134.986         135.125         135.254         135.375         135.488         135.597    
          135.700         135.802         135.903         136.006         136.111         136.219         136.331         136.448         136.569         136.694    
          136.823         136.955         137.089         137.228         137.370         137.512         137.652         137.792         137.934         138.081    
          138.236         138.395         138.556         138.719         138.881         139.044         139.232         139.443         139.647         139.839    
          140.040         140.252         140.476         140.667         140.763         140.644         140.733         140.864         140.910         140.853    
          140.898         140.987         140.858         140.954         141.142         141.323         133.605         133.615         133.630         133.648    
          133.668         133.689         133.710         133.732         133.754         133.777         133.801         133.825         133.849         133.875    
          133.901         133.928         133.956         133.986         134.017         134.049         134.083         134.118         134.153         134.190    
          134.227         134.265         134.304         134.343         134.382         134.422         134.453         134.483         134.466         134.492    
          134.525         134.582         134.530         134.583         134.681         134.793         134.851         134.880         134.848         134.877    
          134.786         134.856         134.937         134.996         134.926         134.993         135.097         135.222         135.339         135.449    
          135.554         135.655         135.755         135.855         135.957         136.064         136.176         136.293         136.415         136.543    
          136.674         136.809         136.947         137.086         137.228         137.372         137.515         137.657         137.800         137.944    
          138.095         138.251         138.413         138.577         138.740         138.901         139.070         139.258         139.456         139.646    
          139.829         140.019         140.220         140.430         140.646         140.866         141.086         141.265         133.608         133.618    
          133.634         133.653         133.673         133.694         133.716         133.738         133.762         133.785         133.810         133.835    
          133.861         133.887         133.915         133.943         133.972         134.003         134.036         134.070         134.104         134.140    
          134.177         134.216         134.255         134.295         134.336         134.378         134.420         134.463         134.508         134.545    
          134.589         134.562         134.602         134.683         134.785         134.839         134.867         134.836         134.868         134.787    
          134.836         134.868         134.840         134.867         134.920         134.988         134.918         134.983         135.056         135.106    
          135.046         135.104         135.195         135.307         135.411         135.512         135.610         135.708         135.806         135.908    
          136.016         136.132         136.255         136.384         136.519         136.657         136.798         136.942         137.088         137.232    
          137.376         137.520         137.664         137.809         137.957         138.109         138.268         138.432         138.599         138.723    
          138.791         138.728         138.805         138.924         139.096         139.281         139.426         139.505         139.426         139.493    
          139.528         139.496         139.530         139.603         139.679         139.598         139.683         139.818         140.002         140.193    
          140.392         140.601         140.816         141.032         141.206         133.611         133.623         133.638         133.657         133.677    
          133.699         133.721         133.744         133.768         133.793         133.819         133.845         133.872         133.899         133.919    
          133.931         133.923         133.937         133.956         133.988         134.020         134.054         134.089         134.125         134.163    
          134.202         134.242         134.283         134.326         134.371         134.417         134.463         134.511         134.561         134.593    
          134.627         134.620         134.651         134.678         134.728         134.699         134.752         134.794         134.858         134.812    
          134.863         134.907         134.932         134.908         134.933         134.981         134.924         134.981         135.029         135.053    
          135.027         135.051         135.097         135.037         135.093         135.157         135.201         135.147         135.197         135.278    
          135.377         135.472         135.565         135.658         135.754         135.855         135.965         136.085         136.216         136.354    
          136.497         136.643         136.792         136.943         137.093         137.207         137.267         137.206         137.275         137.383    
          137.528         137.673         137.820         137.970         138.125         138.285         138.451         138.620         138.740         138.800    
          138.832         138.804         138.836         138.753         138.824         138.904         138.973         138.916         138.983         139.118    
          139.299         139.431         139.516         139.435         139.518         139.581         139.615         139.582         139.616         139.682    
          139.601         139.684         139.813         139.989         140.171         140.362         140.564         140.774         140.984         141.155    
          133.614         133.628         133.643         133.661         133.681         133.703         133.726         133.750         133.774         133.800    
          133.827         133.854         133.882         133.903         133.914         133.907         133.919         133.925         133.930         133.927    
          133.933         133.943         133.935         133.947         133.970         134.002         134.036         134.072         134.108         134.146    
          134.185         134.226         134.268         134.311         134.357         134.405         134.455         134.506         134.559         134.615    
          134.680         134.731         134.776         134.752         134.795         134.859         134.933         134.974         134.994         134.975    
          134.996         134.939         134.988         135.036         135.090         135.037         135.087         135.131         135.151         135.130    
          135.149         135.186         135.137         135.178         135.255         135.345         135.431         135.518         135.606         135.697    
          135.797         135.908         136.033         136.173         136.323         136.477         136.632         136.789         136.948         137.069    
          137.132         137.073         137.136         137.194         137.223         137.196         137.226         137.282         137.220         137.286    
          137.361         137.422         137.348         137.376         137.350         137.378         137.431         137.538         137.685         137.834    
          137.986         138.142         138.304         138.470         138.638         138.803         138.971         139.102         139.177         139.106    
          139.170         139.204         139.175         139.209         139.272         139.349         139.275         139.360         139.440         139.504    
          139.538         139.506         139.539         139.445         139.527         139.604         139.684         139.614         139.682         139.812    
          139.979         140.154         140.340         140.535         140.740         140.947         141.117         133.636         133.649         133.666    
          133.685         133.707         133.730         133.754         133.780         133.806         133.833         133.862         133.891         133.920    
          133.951         133.983         134.017         134.052         134.089         134.128         134.167         134.208         134.250         134.294    
          134.340         134.388         134.439         134.491         134.545         134.603         134.663         134.729         134.777         134.816    
          134.792         134.831         134.886         134.949         134.983         135.000         134.984         135.002         134.957         134.995    
          135.037         135.084         135.040         135.083         135.149         135.233         135.314         135.392         135.470         135.551    
          135.637         135.733         135.845         135.977         136.129         136.293         136.460         136.626         136.789         136.952    
          137.110         137.264         137.371         137.440         137.383         137.443         137.553         137.701         137.850         138.002    
          138.160         138.323         138.491         138.620         138.690         138.623         138.684         138.716         138.688         138.720    
          138.780         138.853         138.783         138.864         138.946         139.023         138.951         139.036         139.093         139.130    
          139.094         139.136         139.199         139.099         139.143         139.104         139.147         139.189         139.226         139.191    
          139.232         139.284         139.367         139.272         139.307         139.275         139.314         139.374         139.450         139.532    
          139.455         139.535         139.655         139.782         139.851         139.780         139.840         139.872         139.841         139.873    
          139.940         140.008         139.940         140.007         140.143         140.326         140.517         140.718         140.921         141.088    
          133.656         133.671         133.689         133.710         133.733         133.758         133.784         133.811         133.839         133.869    
          133.899         133.930         133.962         133.996         134.031         134.068         134.106         134.146         134.187         134.229    
          134.273         134.319         134.368         134.418         134.471         134.525         134.582         134.641         134.703         134.747    
          134.775         134.760         134.794         134.811         134.847         134.827         134.859         134.908         134.986         135.044    
          135.084         135.048         135.082         135.126         135.157         135.114         135.129         135.113         135.128         135.156    
          135.214         135.286         135.357         135.428         135.503         135.582         135.664         135.708         135.638         135.684    
          135.770         135.824         135.739         135.801         135.901         135.966         135.873         135.952         136.089         136.269    
          136.449         136.624         136.795         136.962         137.124         137.278         137.426         137.571         137.718         137.867    
          138.021         138.179         138.342         138.508         138.630         138.711         138.638         138.702         138.735         138.705    
          138.739         138.793         138.873         138.805         138.876         138.959         139.047         138.967         139.035         139.071    
          139.036         139.077         139.110         139.151         139.117         139.153         139.195         139.237         139.201         139.238    
          139.140         139.226         139.279         139.319         139.283         139.323         139.383         139.289         139.328         139.294    
          139.329         139.371         139.405         139.374         139.407         139.445         139.476         139.448         139.479         139.539    
          139.472         139.540         139.663         139.781         139.857         139.789         139.854         139.977         140.145         140.322    
          140.509         140.707         140.907         141.072         133.678         133.694         133.714         133.737         133.761         133.788    
          133.816         133.845         133.875         133.907         133.939         133.973         134.008         134.045         134.083         134.123    
          134.165         134.207         134.251         134.297         134.345         134.395         134.447         134.501         134.557         134.615    
          134.674         134.737         134.778         134.809         134.793         134.821         134.841         134.873         134.856         134.883    
          134.909         134.938         134.918         134.951         134.999         135.069         135.121         135.155         135.122         135.155    
          135.203         135.266         135.331         135.389         135.418         135.378         135.412         135.471         135.537         135.571    
          135.527         135.566         135.618         135.666         135.611         135.659         135.721         135.784         135.714         135.776    
          135.844         135.874         135.839         135.869         135.935         135.847         135.930         136.068         136.260         136.450    
          136.631         136.808         136.980         137.106         137.171         137.114         137.179         137.256         137.321         137.244    
          137.274         137.247         137.277         137.333         137.442         137.589         137.736         137.887         138.041         138.200    
          138.362         138.526         138.646         138.728         138.654         138.736         138.855         138.978         139.041         139.082    
          139.047         139.083         138.984         139.072         139.148         139.233         139.158         139.222         139.255         139.225    
          139.258         139.315         139.396         139.321         139.403         139.518         139.676         139.832         139.989         140.153    
          140.326         140.511         140.707         140.905         141.071         133.702         133.719         133.741         133.765         133.791    
          133.820         133.850         133.881         133.914         133.948         133.983         134.020         134.058         134.098         134.140    
          134.183         134.227         134.273         134.320         134.369         134.421         134.474         134.529         134.586         134.644    
          134.704         134.766         134.829         134.893         134.934         134.965         134.949         134.978         135.001         135.028    
          135.015         135.043         135.066         135.093         135.078         135.104         135.127         135.159         135.139         135.166    
          135.192         135.217         135.200         135.225         135.251         135.277         135.259         135.285         135.313         135.339    
          135.322         135.350         135.376         135.403         135.419         135.405         135.421         135.390         135.423         135.452    
          135.486         135.467         135.501         135.529         135.569         135.547         135.583         135.615         135.663         135.632    
          135.680         135.717         135.779         135.733         135.794         135.851         135.935         135.865         135.945         136.073    
          136.269         136.464         136.650         136.827         136.997         137.159         137.271         137.346         137.281         137.356    
          137.463         137.610         137.758         137.909         138.065         138.224         138.385         138.549         138.668         138.750    
          138.679         138.742         138.775         138.746         138.779         138.836         138.902         138.845         138.913         138.992    
          139.081         139.004         139.072         139.107         139.076         139.111         139.166         139.247         139.179         139.252    
          139.333         139.395         139.428         139.398         139.431         139.345         139.418         139.497         139.563         139.507    
          139.572         139.691         139.848         140.004         140.167         140.340         140.526         140.718         140.912         141.077    
          133.727         133.746         133.769         133.795         133.824         133.854         133.886         133.920         133.955         133.992    
          134.031         134.071         134.113         134.156         134.201         134.247         134.294         134.342         134.393         134.446    
          134.500         134.555         134.613         134.672         134.733         134.796         134.860         134.924         134.989         135.054    
          135.118         135.181         135.245         135.310         135.380         135.454         135.528         135.610         135.664         135.707    
          135.698         135.740         135.759         135.817         135.796         135.845         135.886         135.964         135.915         135.987    
          136.055         136.133         136.069         136.156         136.294         136.490         136.678         136.855         137.026         137.149    
          137.214         137.159         137.215         137.246         137.222         137.253         137.294         137.368         137.312         137.375    
          137.487         137.635         137.783         137.934         138.092         138.254         138.416         138.577         138.693         138.770    
          138.709         138.776         138.900         139.019         139.101         139.035         139.106         139.231         139.397         139.557    
          139.715         139.869         140.024         140.187         140.360         140.545         140.738         140.932         141.095         133.755    
          133.775         133.800         133.828         133.858         133.891         133.926         133.963         134.001         134.042         134.083    
          134.127         134.172         134.218         134.266         134.314         134.364         134.416         134.470         134.525         134.582    
          134.640         134.700         134.762         134.826         134.891         134.958         135.026         135.096         135.168         135.240    
          135.313         135.386         135.462         135.505         135.536         135.537         135.573         135.614         135.698         135.786    
          135.887         135.958         136.024         135.998         136.069         136.100         136.187         136.146         136.215         136.343    
          136.534         136.718         136.893         137.063         137.177         137.250         137.197         137.261         137.370         137.518    
          137.666         137.814         137.966         138.126         138.288         138.450         138.610         138.770         138.933         139.094    
          139.258         139.422         139.585         139.741         139.895         140.051         140.213         140.386         140.570         140.762    
          140.959         141.121         133.784         133.806         133.833         133.863         133.896         133.932         133.969         134.009    
          134.052         134.095         134.140         134.187         134.235         134.284         134.334         134.386         134.439         134.494    
          134.550         134.608         134.667         134.728         134.791         134.857         134.925         134.995         135.067         135.142    
          135.221         135.302         135.382         135.464         135.512         135.541         135.546         135.581         135.564         135.580    
          135.582         135.598         135.622         135.625         135.658         135.707         135.796         135.889         135.947         135.990    
          135.991         136.046         136.052         136.121         136.106         136.168         136.252         136.419         136.596         136.771    
          136.943         137.108         137.264         137.372         137.432         137.385         137.455         137.557         137.706         137.852    
          138.005         138.165         138.329         138.492         138.652         138.813         138.974         139.131         139.290         139.453    
          139.615         139.771         139.925         140.082         140.245         140.418         140.600         140.793         140.990         141.154    
          133.817         133.840         133.868         133.901         133.937         133.976         134.017         134.061         134.106         134.153    
          134.201         134.251         134.302         134.354         134.407         134.462         134.518         134.575         134.634         134.694    
          134.757         134.821         134.889         134.960         135.033         135.109         135.190         135.275         135.365         135.453    
          135.542         135.630         135.718         135.809         135.901         135.996         136.051         136.104         136.099         136.158    
          136.164         136.228         136.217         136.275         136.352         136.505         136.671         136.838         137.002         137.166    
          137.276         137.335         137.300         137.362         137.390         137.419         137.401         137.430         137.481         137.441    
          137.501         137.607         137.755         137.900         138.051         138.211         138.377         138.541         138.702         138.862    
          139.019         139.173         139.327         139.488         139.648         139.803         139.958         140.116         140.281         140.454    
          140.636         140.829         141.027         141.193         133.851         133.876         133.907         133.942         133.982         134.024    
          134.070         134.105         134.124         134.109         134.129         134.150         134.172         134.148         134.158         134.150    
          134.160         134.178         134.214         134.266         134.320         134.374         134.429         134.485         134.542         134.601    
          134.661         134.722         134.786         134.853         134.924         134.998         135.075         135.156         135.242         135.335    
          135.432         135.530         135.629         135.727         135.822         135.917         136.012         136.107         136.161         136.214    
          136.209         136.242         136.265         136.262         136.284         136.271         136.333         136.318         136.375         136.450    
          136.596         136.754         136.912         137.071         137.229         137.379         137.523         137.671         137.817         137.960    
          138.109         138.266         138.429         138.594         138.755         138.912         139.065         139.216         139.369         139.526    
          139.683         139.838         139.994         140.154         140.321         140.495         140.676         140.869         141.067         141.232    
          133.887         133.915         133.949         133.988         134.031         134.077         134.126         134.161         134.185         134.167    
          134.188         134.227         134.281         134.336         134.392         134.449         134.507         134.566         134.627         134.688    
          134.751         134.817         134.887         134.961         135.039         135.121         135.208         135.301         135.402         135.509    
          135.619         135.727         135.830         135.931         135.984         136.022         136.036         136.083         136.079         136.123    
          136.114         136.132         136.140         136.157         136.177         136.219         136.267         136.313         136.316         136.361    
          136.368         136.429         136.416         136.470         136.546         136.690         136.839         136.994         137.149         137.303    
          137.453         137.598         137.744         137.888         138.028         138.175         138.325         138.484         138.649         138.807    
          138.960         139.111         139.262         139.413         139.568         139.722         139.876         140.035         140.197         140.363    
          140.538         140.719         140.911         141.110         141.275         133.928         133.959         133.996         134.039         134.085    
          134.135         134.186         134.239         134.295         134.352         134.410         134.470         134.530         134.591         134.653    
          134.717         134.782         134.851         134.924         135.002         135.084         135.173         135.268         135.370         135.480    
          135.599         135.718         135.834         135.946         136.053         136.157         136.202         136.246         136.259         136.295    
          136.337         136.422         136.472         136.524         136.520         136.575         136.592         136.650         136.639         136.678    
          136.704         136.698         136.724         136.727         136.791         136.768         136.834         136.926         137.028         137.092    
          137.058         137.131         137.228         137.382         137.534         137.631         137.691         137.661         137.735         137.773    
          137.836         137.809         137.876         137.962         138.100         138.197         138.256         138.219         138.289         138.336    
          138.401         138.340         138.369         138.351         138.380         138.430         138.540         138.657         138.723         138.673    
          138.749         138.856         139.007         139.158         139.309         139.459         139.611         139.764         139.920         140.080    
          140.242         140.408         140.582         140.764         140.957         141.155         141.318         133.973         134.008         134.049    
          134.095         134.144         134.196         134.250         134.307         134.366         134.427         134.489         134.552         134.616    
          134.681         134.747         134.816         134.888         134.964         135.047         135.135         135.232         135.336         135.449    
          135.572         135.704         135.835         135.964         136.083         136.192         136.292         136.377         136.418         136.452    
          136.463         136.500         136.536         136.582         136.631         136.630         136.661         136.683         136.682         136.703    
          136.688         136.750         136.738         136.776         136.801         136.795         136.821         136.815         136.886         136.863    
          136.933         136.963         137.025         137.004         137.073         137.077         137.108         137.096         137.126         137.176    
          137.149         137.209         137.312         137.468         137.569         137.629         137.602         137.675         137.681         137.711    
          137.699         137.728         137.777         137.748         137.821         137.851         137.897         137.926         137.913         137.941    
          137.890         137.957         137.990         138.047         138.024         138.086         138.121         138.177         138.151         138.215    
          138.248         138.318         138.282         138.350         138.389         138.465         138.420         138.493         138.596         138.701    
          138.757         138.788         138.768         138.799         138.723         138.802         138.858         138.923         138.878         138.948    
          139.052         139.204         139.314         139.379         139.329         139.407         139.464         139.527         139.490         139.553    
          139.614         139.680         139.641         139.707         139.769         139.837         139.797         139.866         139.927         139.992    
          139.955         140.020         140.082         140.150         140.110         140.177         140.242         140.314         140.265         140.344    
          140.407         140.481         140.429         140.511         140.578         140.655         140.598         140.682         140.809         141.002    
          141.201         141.364         134.027         134.063         134.106         134.154         134.206         134.261         134.319         134.380    
          134.443         134.508         134.574         134.641         134.710         134.779         134.852         134.927         135.009         135.097    
          135.193         135.300         135.415         135.543         135.683         135.828         135.972         136.107         136.225         136.331    
          136.423         136.460         136.485         136.511         136.541         136.502         136.517         136.525         136.540         136.561    
          136.578         136.607         136.644         136.687         136.732         136.730         136.781         136.787         136.846         136.835    
          136.895         136.912         136.956         136.983         136.975         137.002         136.959         137.025         137.048         137.121    
          137.096         137.154         137.251         137.404         137.555         137.649         137.720         137.686         137.761         137.793    
          137.840         137.868         137.855         137.883         137.831         137.898         137.928         137.994         137.965         138.008    
          138.033         138.022         138.048         138.058         138.101         138.125         138.113         138.138         138.068         138.094    
          138.083         138.108         138.151         138.184         138.228         138.254         138.240         138.266         138.220         138.276    
          138.314         138.362         138.389         138.374         138.401         138.325         138.353         138.339         138.366         138.412    
          138.452         138.526         138.483         138.553         138.651         138.752         138.826         138.772         138.849         138.902    
          138.975         138.929         138.994         139.056         139.119         139.080         139.144         139.205         139.270         139.231    
          139.297         139.353         139.431         139.383         139.449         139.560         139.718         139.876         140.032         140.189    
          140.297         140.373         140.327         140.397         140.456         140.538         140.488         140.562         140.626         140.711    
          140.656         140.732         140.809         140.887         140.827         140.914         141.048         141.246         141.411         134.083    
          134.121         134.166         134.217         134.272         134.331         134.393         134.458         134.526         134.596         134.667    
          134.740         134.814         134.891         134.973         135.060         135.156         135.262         135.379         135.509         135.654    
          135.809         135.964         136.111         136.245         136.362         136.460         136.542         136.609         136.672         136.707    
          136.737         136.742         136.764         136.781         136.782         136.801         136.779         136.809         136.829         136.827    
          136.847         136.824         136.873         136.881         136.942         136.928         136.988         137.005         137.074         137.052    
          137.114         137.197         137.346         137.494         137.641         137.734         137.779         137.806         137.792         137.820    
          137.770         137.830         137.867         137.933         137.905         137.962         137.979         138.003         137.992         138.016    
          138.058         138.030         138.092         138.120         138.185         138.152         138.212         138.295         138.380         138.446    
          138.406         138.476         138.516         138.588         138.546         138.617         138.664         138.721         138.692         138.749    
          138.797         138.871         138.828         138.890         138.999         139.155         139.311         139.469         139.626         139.786    
          139.947         140.103         140.255         140.409         140.568         140.733         140.856         140.942         140.880         140.957    
          141.043         141.125         141.058         141.150         141.289         141.449         134.142         134.182         134.229         134.283    
          134.342         134.406         134.473         134.544         134.618         134.695         134.772         134.852         134.935         135.023    
          135.118         135.224         135.340         135.471         135.614         135.773         135.937         136.097         136.245         136.374    
          136.485         136.576         136.651         136.714         136.738         136.758         136.777         136.788         136.799         136.807    
          136.818         136.787         136.806         136.825         136.823         136.842         136.830         136.846         136.865         136.865    
          136.882         136.868         136.899         136.919         136.916         136.937         136.910         136.963         136.974         137.035    
          137.025         137.078         137.076         137.102         137.095         137.120         137.162         137.145         137.197         137.286    
          137.430         137.574         137.718         137.855         137.987         138.069         138.106         138.129         138.118         138.141    
          138.099         138.151         138.183         138.245         138.217         138.268         138.355         138.440         138.507         138.468    
          138.540         138.577         138.647         138.613         138.670         138.766         138.913         139.070         139.229         139.387    
          139.546         139.705         139.865         140.021         140.172         140.322         140.472         140.623         140.779         140.949    
          141.081         141.174         141.098         141.180         141.280         141.360         141.289         141.369         141.448         141.456    
          134.203         134.245         134.296         134.354         134.418         134.487         134.562         134.641         134.723         134.808    
          134.895         134.985         135.081         135.187         135.302         135.430         135.573         135.728         135.897         136.067    
          136.231         136.377         136.503         136.609         136.696         136.766         136.821         136.832         136.852         136.880    
          136.904         136.878         136.909         136.933         136.959         136.957         137.013         137.007         137.056         137.120    
          137.240         137.372         137.513         137.654         137.792         137.926         138.055         138.174         138.294         138.422    
          138.507         138.576         138.536         138.605         138.694         138.841         138.994         139.153         139.312         139.470    
          139.631         139.794         139.954         140.106         140.253         140.398         140.538         140.677         140.822         140.977    
          141.147         141.328         141.478         134.267         134.312         134.367         134.430         134.502         134.580         134.665    
          134.755         134.847         134.942         135.043         135.150         135.267         135.396         135.537         135.693         135.863    
          136.042         136.216         136.379         136.519         136.639         136.739         136.822         136.885         136.933         136.980    
          137.033         137.068         137.114         137.114         137.159         137.217         137.334         137.462         137.596         137.731    
          137.866         137.998         138.123         138.241         138.364         138.451         138.504         138.478         138.547         138.575    
          138.645         138.618         138.675         138.773         138.927         139.086         139.250         139.412         139.573         139.739    
          139.906         140.064         140.213         140.352         140.483         140.607         140.729         140.855         140.990         141.141    
          141.317         141.467         134.335         134.383         134.445         134.517         134.600         134.692         134.789         134.891    
          134.998         135.111         135.233         135.365         135.509         135.666         135.840         136.023         136.206         136.381    
          136.540         136.674         136.783         136.875         136.951         137.008         137.055         137.102         137.154         137.180    
          137.219         137.232         137.271         137.272         137.317         137.321         137.366         137.430         137.552         137.679    
          137.810         137.940         138.027         138.080         138.054         138.120         138.150         138.199         138.186         138.237    
          138.268         138.319         138.306         138.358         138.390         138.445         138.431         138.488         138.518         138.589    
          138.565         138.622         138.718         138.872         139.030         139.195         139.365         139.535         139.703         139.876    
          140.047         140.206         140.348         140.471         140.583         140.684         140.780         140.879         140.983         141.105    
          141.299         141.450         134.407         134.463         134.536         134.622         134.721         134.828         134.943         135.064    
          135.194         135.333         135.485         135.648         135.824         136.006         136.194         136.378         136.551         136.704    
          136.833         136.940         137.024         137.092         137.145         137.189         137.231         137.279         137.342         137.381    
          137.423         137.430         137.473         137.480         137.529         137.527         137.576         137.642         137.765         137.846    
          137.898         137.878         137.944         137.969         138.021         138.012         138.065         138.091         138.158         138.135    
          138.189         138.270         138.396         138.529         138.674         138.827         138.984         139.148         139.322         139.505    
          139.690         139.871         140.055         140.228         140.378         140.506         140.609         140.692         140.767         140.828    
          140.898         140.957         140.997         134.491         134.561         134.649         134.754         134.873         135.003         135.143    
          135.293         135.455         135.629         135.810         135.996         136.185         136.377         136.562         136.732         136.879    
          137.002         137.104         137.187         137.252         137.298         137.335         137.370         137.413         137.470         137.546    
          137.589         137.634         137.641         137.689         137.692         137.738         137.747         137.795         137.806         137.857    
          137.862         137.915         137.927         137.994         137.983         138.036         138.112         138.239         138.370         138.500    
          138.641         138.790         138.945         139.106         139.282         139.479         139.683         139.886         140.086         140.270    
          140.435         140.579         140.695         140.774         140.818         140.872         140.874         140.928         134.597         134.684    
          134.794         134.925         135.074         135.238         135.413         135.601         135.794         135.987         136.182         136.380    
          136.576         136.762         136.929         137.071         137.189         137.286         137.365         137.427         137.471         137.503    
          137.532         137.570         137.621         137.694         137.774         137.879         137.998         138.119         138.242         138.369    
          138.496         138.628         138.766         138.915         139.074         139.245         139.442         139.668         139.902         140.122    
          140.324         140.509         140.673         140.820         140.932         140.988         140.944         141.040         134.732         134.842    
          134.986         135.159         135.351         135.555         135.765         135.972         136.178         136.386         136.592         136.794    
          136.982         137.146         137.282         137.393         137.485         137.560         137.621         137.668         137.703         137.732    
          137.764         137.813         137.890         137.973         138.078         138.191         138.304         138.421         138.540         138.656    
          138.778         138.910         139.061         139.228         139.411         139.622         139.883         140.134         140.371         140.586    
          140.774         140.938         141.113         141.247         141.319         134.905         135.062         135.263         135.488         135.719    
          135.942         136.163         136.384         136.605         136.822         137.032         137.221         137.381         137.511         137.613    
          137.700         137.773         137.844         137.903         137.946         137.981         138.023         138.101         138.205         138.304    
          138.407         138.500         138.592         138.687         138.776         138.863         138.967         139.085         139.236         139.406    
          139.594         139.795         140.086         140.375         140.645         140.883         141.075         141.209         135.165         135.392    
          135.651         135.897         136.131         136.365         136.602         136.838         137.069         137.290         137.482         137.638    
          137.758         137.848         137.932         137.995         138.100         138.197         138.251         138.288         138.350         138.481    
          138.653         138.778         138.872         138.946         138.995         139.046         139.079         139.107         139.174         139.269    
          139.414         139.585         139.751         139.862         135.561         135.844         136.091         136.329         136.574         136.829    
          137.085         137.335         137.570         137.767         137.923         138.028         138.094         138.188         138.186         138.400    
          136.071         136.300         136.527         136.782         137.060         137.343         137.625         137.883         138.097         138.255    
          138.339         138.322         138.549         136.510         136.698         136.970         137.292         137.618         137.959         138.254    
          138.495         138.666         138.761    
1
  HEAD IN LAYER   3 AT END OF TIME STEP   1 IN STRESS PERIOD    2
  ---------------------------------------------------------------------------

                1               2               3               4               5               6               7               8               9              10
               11              12              13              14              15              16              17              18              19              20
               21              22              23              24              25              26              27              28              29              30
               31              32              33              34              35              36              37              38              39              40
               41              42              43              44              45              46              47              48              49              50
               51              52              53              54              55              56              57              58              59              60
               61              62              63              64              65              66              67              68              69              70
               71              72              73              74              75              76              77              78              79              80
               81              82              83              84              85              86              87              88              89              90
               91              92              93              94              95              96              97              98              99             100
              101             102             103             104             105             106             107             108             109             110
              111             112             113             114             115             116             117             118             119             120
              121             122             123             124             125             126             127             128             129             130
              131             132             133             134             135             136             137             138             139             140
              141             142             143             144             145             146             147             148             149             150
              151             152             153             154             155             156             157             158             159             160
              161             162             163             164             165             166             167             168             169             170
              171             172             173             174             175             176             177             178             179             180
              181             182             183             184             185             186             187             188             189             190
              191             192             193             194             195             196             197             198             199             200
              201             202             203             204             205             206             207             208             209             210
              211             212             213             214             215             216             217             218             219             220
              221             222             223             224             225             226             227             228             229             230
              231             232             233             234             235             236             237             238             239             240
              241             242             243             244             245             246             247             248             249             250
              251             252             253             254             255             256             257             258             259             260
              261             262             263             264             265             266             267             268             269             270
              271             272             273             274             275             276             277             278             279             280
              281             282             283             284             285             286             287             288             289             290
              291             292             293             294             295             296             297             298             299             300
              301             302             303             304             305             306             307             308             309             310
              311             312             313             314             315             316             317             318             319             320
              321             322             323             324             325             326             327             328             329             330
              331             332             333             334             335             336             337             338             339             340
              341             342             343             344             345             346             347             348             349             350
              351             352             353             354             355             356             357             358             359             360
              361             362             363             364             365             366             367             368             369             370
              371             372             373             374             375             376             377             378             379             380
              381             382             383             384             385             386             387             388             389             390
              391             392             393             394             395             396             397             398             399             400
              401             402             403             404             405             406             407             408             409             410
              411             412             413             414             415             416             417             418             419             420
              421             422             423             424             425             426             427             428             429             430
              431             432             433             434             435             436             437             438             439             440
              441             442             443             444             445             446             447             448             449             450
              451             452             453             454             455             456             457             458             459             460
              461             462             463             464             465             466             467             468             469             470
              471             472             473             474             475             476             477             478             479             480
              481             482             483             484             485             486             487             488             489             490
              491             492             493             494             495             496             497             498             499             500
              501             502             503             504             505             506             507             508             509             510
              511             512             513             514             515             516             517             518             519             520
              521             522             523             524             525             526             527             528             529             530
              531             532             533             534             535             536             537             538             539             540
              541             542             543             544             545             546             547             548             549             550
              551             552             553             554             555             556             557             558             559             560
              561             562             563             564             565             566             567             568             569             570
              571             572             573             574             575             576             577             578             579             580
              581             582             583             584             585             586             587             588             589             590
              591             592             593             594             595             596             597             598             599             600
              601             602             603             604             605             606             607             608             609             610
              611             612             613             614             615             616             617             618             619             620
              621             622             623             624             625             626             627             628             629             630
              631             632             633             634             635             636             637             638             639             640
              641             642             643             644             645             646             647             648             649             650
              651             652             653             654             655             656             657             658             659             660
              661             662             663             664             665             666             667             668             669             670
              671             672             673             674             675             676             677             678             679             680
              681             682             683             684             685             686             687             688             689             690
              691             692             693             694             695             696             697             698             699             700
              701             702             703             704             705             706             707             708             709             710
              711             712             713             714             715             716             717             718             719             720
              721             722             723             724             725             726             727             728             729             730
              731             732             733             734             735             736             737             738             739             740
              741             742             743             744             745             746             747             748             749             750
              751             752             753             754             755             756             757             758             759             760
              761             762             763             764             765             766             767             768             769             770
              771             772             773             774             775             776             777             778             779             780
              781             782             783             784             785             786             787             788             789             790
              791             792             793             794             795             796             797             798             799             800
              801             802             803             804             805             806             807             808             809             810
              811             812             813             814             815             816             817             818             819             820
              821             822             823             824             825             826             827             828             829             830
              831             832             833             834             835             836             837             838             839             840
              841             842             843             844             845             846             847             848             849             850
              851             852             853             854             855             856             857             858             859             860
              861             862             863             864             865             866             867             868             869             870
              871             872             873             874             875             876             877             878             879             880
              881             882             883             884             885             886             887             888             889             890
              891             892             893             894             895             896             897             898             899             900
              901             902             903             904             905             906             907             908             909             910
              911             912             913             914             915             916             917             918             919             920
              921             922             923             924             925             926             927             928             929             930
              931             932             933             934             935             936             937             938             939             940
              941             942             943             944             945             946             947             948             949             950
              951             952             953             954             955             956             957             958             959             960
              961             962             963             964             965             966             967             968             969             970
              971             972             973             974             975             976             977             978             979             980
              981             982             983             984             985             986             987             988             989             990
              991             992             993             994             995             996             997             998             999            1000
             1001            1002            1003            1004            1005            1006            1007            1008            1009            1010
             1011            1012            1013            1014            1015            1016            1017            1018            1019            1020
             1021            1022            1023            1024            1025            1026            1027            1028            1029            1030
             1031            1032            1033            1034            1035            1036            1037            1038            1039            1040
             1041            1042            1043            1044            1045            1046            1047            1048            1049            1050
             1051            1052            1053            1054            1055            1056            1057            1058            1059            1060
             1061            1062            1063            1064            1065            1066            1067            1068            1069            1070
             1071            1072            1073            1074            1075            1076            1077            1078            1079            1080
             1081            1082            1083            1084            1085            1086            1087            1088            1089            1090
             1091            1092            1093            1094            1095            1096            1097            1098            1099            1100
             1101            1102            1103            1104            1105            1106            1107            1108            1109            1110
             1111            1112            1113            1114            1115            1116            1117            1118            1119            1120
             1121            1122            1123            1124            1125            1126            1127            1128            1129            1130
             1131            1132            1133            1134            1135            1136            1137            1138            1139            1140
             1141            1142            1143            1144            1145            1146            1147            1148            1149            1150
             1151            1152            1153            1154            1155            1156            1157            1158            1159            1160
             1161            1162            1163            1164            1165            1166            1167            1168            1169            1170
             1171            1172            1173            1174            1175            1176            1177            1178            1179            1180
             1181            1182            1183            1184            1185            1186            1187            1188            1189            1190
             1191            1192            1193            1194            1195            1196            1197            1198            1199            1200
             1201            1202            1203            1204            1205            1206            1207            1208            1209            1210
             1211            1212            1213            1214            1215            1216            1217            1218            1219            1220
             1221            1222            1223            1224            1225            1226            1227            1228            1229            1230
             1231            1232            1233            1234            1235            1236            1237            1238            1239            1240
             1241            1242            1243            1244            1245            1246            1247            1248            1249            1250
             1251            1252            1253            1254            1255            1256            1257            1258            1259            1260
             1261            1262            1263            1264            1265            1266            1267            1268            1269            1270
             1271            1272            1273            1274            1275            1276            1277            1278            1279            1280
             1281            1282            1283            1284            1285            1286            1287            1288            1289            1290
             1291            1292            1293            1294            1295            1296            1297            1298            1299            1300
             1301            1302            1303            1304            1305            1306            1307            1308            1309            1310
             1311            1312            1313            1314            1315            1316            1317            1318            1319            1320
             1321            1322            1323            1324            1325            1326            1327            1328            1329            1330
             1331            1332            1333            1334            1335            1336            1337            1338            1339            1340
             1341            1342            1343            1344            1345            1346            1347            1348            1349            1350
             1351            1352            1353            1354            1355            1356            1357            1358            1359            1360
             1361            1362            1363            1364            1365            1366            1367            1368            1369            1370
             1371            1372            1373            1374            1375            1376            1377            1378            1379            1380
             1381            1382            1383            1384            1385            1386            1387            1388            1389            1390
             1391            1392            1393            1394            1395            1396            1397            1398            1399            1400
             1401            1402            1403            1404            1405            1406            1407            1408            1409            1410
             1411            1412            1413            1414            1415            1416            1417            1418            1419            1420
             1421            1422            1423            1424            1425            1426            1427            1428            1429            1430
             1431            1432            1433            1434            1435            1436            1437            1438            1439            1440
             1441            1442            1443            1444            1445            1446            1447            1448            1449            1450
             1451            1452            1453            1454            1455            1456            1457            1458            1459            1460
             1461            1462            1463            1464            1465            1466            1467            1468            1469            1470
             1471            1472            1473            1474            1475            1476            1477            1478            1479            1480
             1481            1482            1483            1484            1485            1486            1487            1488            1489            1490
             1491            1492            1493            1494            1495            1496            1497            1498            1499            1500
             1501            1502            1503            1504            1505            1506            1507            1508            1509            1510
             1511            1512            1513            1514            1515            1516            1517            1518            1519            1520
             1521            1522            1523            1524            1525            1526            1527            1528            1529            1530
             1531            1532            1533            1534            1535            1536            1537            1538            1539            1540
             1541            1542            1543            1544            1545            1546            1547            1548            1549            1550
             1551            1552            1553            1554            1555            1556            1557            1558            1559            1560
             1561            1562            1563            1564            1565            1566            1567            1568            1569            1570
             1571            1572            1573            1574            1575            1576            1577            1578            1579            1580
             1581            1582            1583            1584            1585            1586            1587            1588            1589            1590
             1591            1592            1593            1594            1595            1596            1597            1598            1599            1600
             1601            1602            1603            1604            1605            1606            1607            1608            1609            1610
             1611            1612            1613            1614            1615            1616            1617            1618            1619            1620
             1621            1622            1623            1624            1625            1626            1627            1628            1629            1630
             1631            1632            1633            1634            1635            1636            1637            1638            1639            1640
             1641            1642            1643            1644            1645            1646            1647            1648            1649            1650
             1651            1652            1653            1654            1655            1656            1657            1658            1659            1660
             1661            1662            1663            1664            1665            1666            1667            1668            1669            1670
             1671            1672            1673            1674            1675            1676            1677            1678            1679            1680
             1681            1682            1683            1684            1685            1686            1687            1688            1689            1690
             1691            1692            1693            1694            1695            1696            1697            1698            1699            1700
             1701            1702            1703            1704            1705            1706            1707            1708            1709            1710
             1711            1712            1713            1714            1715            1716            1717            1718            1719            1720
             1721            1722            1723            1724            1725            1726            1727            1728            1729            1730
             1731            1732            1733            1734            1735            1736            1737            1738            1739            1740
             1741            1742            1743            1744            1745            1746            1747            1748            1749            1750
             1751            1752            1753            1754            1755            1756            1757            1758            1759            1760
             1761            1762            1763            1764            1765            1766            1767            1768            1769            1770
             1771            1772            1773            1774            1775            1776            1777            1778            1779            1780
             1781            1782            1783            1784            1785            1786            1787            1788            1789            1790
             1791            1792            1793            1794            1795            1796            1797            1798            1799            1800
             1801            1802            1803            1804            1805            1806            1807            1808            1809            1810
             1811            1812            1813            1814            1815            1816            1817            1818            1819            1820
             1821            1822            1823            1824            1825            1826            1827            1828            1829            1830
             1831            1832            1833            1834            1835            1836            1837            1838            1839            1840
             1841            1842            1843            1844            1845            1846            1847            1848            1849            1850
             1851            1852            1853            1854            1855            1856            1857            1858            1859            1860
             1861            1862            1863            1864            1865            1866            1867            1868            1869            1870
             1871            1872            1873            1874            1875            1876            1877            1878            1879            1880
             1881            1882            1883            1884            1885            1886            1887            1888            1889            1890
             1891            1892            1893            1894            1895            1896            1897            1898            1899            1900
             1901            1902            1903            1904            1905            1906            1907            1908            1909            1910
             1911            1912            1913            1914            1915            1916            1917            1918            1919            1920
             1921            1922            1923            1924            1925            1926            1927            1928            1929            1930
             1931            1932            1933            1934            1935            1936            1937            1938            1939            1940
             1941            1942            1943            1944            1945            1946            1947            1948            1949            1950
             1951            1952            1953            1954            1955            1956            1957            1958            1959            1960
             1961            1962            1963            1964            1965            1966            1967            1968            1969            1970
             1971            1972            1973            1974            1975            1976            1977            1978            1979            1980
             1981            1982            1983            1984            1985            1986            1987            1988            1989            1990
             1991            1992            1993            1994            1995            1996            1997            1998            1999            2000
             2001            2002            2003            2004            2005            2006            2007            2008            2009            2010
             2011            2012            2013            2014            2015            2016            2017            2018            2019            2020
             2021            2022            2023            2024            2025            2026            2027            2028            2029            2030
             2031            2032            2033            2034            2035            2036            2037            2038            2039            2040
             2041            2042            2043            2044            2045            2046            2047            2048            2049            2050
             2051            2052            2053            2054            2055            2056            2057            2058            2059            2060
             2061            2062            2063            2064            2065            2066            2067            2068            2069            2070
             2071            2072            2073            2074            2075            2076            2077            2078            2079            2080
             2081            2082            2083            2084            2085            2086            2087            2088            2089            2090
             2091            2092            2093            2094            2095            2096            2097            2098            2099            2100
             2101            2102            2103            2104            2105            2106            2107            2108            2109            2110
             2111            2112            2113            2114            2115            2116            2117            2118            2119            2120
             2121            2122            2123            2124            2125            2126            2127            2128            2129            2130
             2131            2132            2133            2134            2135            2136            2137            2138            2139            2140
             2141            2142            2143            2144            2145            2146            2147            2148            2149            2150
             2151            2152            2153            2154            2155            2156            2157            2158            2159            2160
             2161            2162            2163            2164            2165            2166            2167            2168            2169            2170
             2171            2172            2173            2174            2175            2176            2177            2178            2179            2180
             2181            2182            2183            2184            2185            2186            2187            2188            2189            2190
             2191            2192            2193            2194            2195            2196            2197            2198            2199            2200
             2201            2202            2203            2204            2205            2206            2207            2208            2209            2210
             2211            2212            2213            2214            2215            2216            2217            2218            2219            2220
             2221            2222            2223            2224            2225            2226            2227            2228            2229            2230
             2231            2232            2233            2234            2235            2236            2237            2238            2239            2240
             2241            2242            2243            2244            2245            2246            2247            2248            2249            2250
             2251            2252            2253            2254            2255            2256            2257            2258            2259            2260
             2261            2262            2263            2264            2265            2266            2267            2268            2269            2270
             2271            2272            2273            2274            2275            2276            2277            2278            2279            2280
             2281            2282            2283            2284            2285            2286            2287            2288            2289            2290
             2291            2292            2293            2294            2295            2296            2297            2298            2299            2300
             2301            2302            2303            2304            2305            2306            2307            2308            2309            2310
             2311            2312            2313            2314            2315            2316            2317            2318            2319            2320
             2321            2322            2323            2324            2325            2326            2327            2328            2329            2330
             2331            2332            2333            2334            2335            2336            2337            2338            2339            2340
             2341            2342            2343            2344            2345            2346            2347            2348            2349            2350
             2351            2352            2353            2354            2355            2356            2357            2358            2359            2360
             2361            2362            2363            2364            2365            2366            2367            2368            2369            2370
             2371            2372            2373            2374            2375            2376            2377            2378            2379            2380
             2381            2382            2383            2384            2385            2386            2387            2388            2389            2390
             2391            2392            2393            2394            2395            2396            2397            2398            2399            2400
             2401            2402            2403            2404            2405            2406            2407            2408            2409            2410
             2411            2412            2413            2414            2415            2416            2417            2418            2419            2420
             2421            2422            2423            2424            2425            2426            2427            2428            2429            2430
             2431            2432            2433            2434            2435            2436            2437            2438            2439            2440
             2441            2442            2443            2444            2445            2446            2447            2448            2449            2450
             2451            2452            2453            2454            2455            2456            2457            2458            2459            2460
             2461            2462            2463            2464            2465            2466            2467            2468            2469            2470
             2471            2472            2473            2474            2475            2476            2477            2478            2479            2480
             2481            2482            2483            2484            2485            2486            2487            2488            2489            2490
             2491            2492            2493            2494            2495            2496            2497            2498            2499            2500
             2501            2502            2503            2504            2505            2506            2507            2508            2509            2510
             2511            2512            2513            2514            2515            2516            2517            2518            2519            2520
             2521            2522            2523            2524            2525            2526            2527            2528            2529            2530
             2531            2532            2533            2534            2535            2536            2537            2538            2539            2540
             2541            2542            2543            2544            2545            2546            2547            2548            2549            2550
             2551            2552            2553            2554            2555            2556            2557            2558            2559            2560
             2561            2562            2563            2564            2565            2566            2567            2568            2569            2570
             2571            2572            2573            2574            2575            2576            2577            2578            2579            2580
             2581            2582            2583            2584            2585            2586            2587            2588            2589            2590
             2591            2592            2593            2594            2595            2596            2597            2598            2599            2600
             2601            2602            2603            2604            2605            2606            2607            2608            2609            2610
             2611            2612            2613            2614            2615            2616            2617            2618            2619            2620
             2621            2622            2623            2624            2625            2626            2627            2628            2629            2630
             2631            2632            2633            2634            2635            2636            2637            2638            2639            2640
             2641            2642            2643            2644            2645            2646            2647            2648            2649            2650
             2651            2652            2653            2654            2655            2656            2657            2658            2659            2660
             2661            2662            2663            2664            2665            2666            2667            2668            2669            2670
             2671            2672            2673            2674            2675            2676            2677            2678            2679            2680
             2681            2682            2683            2684            2685            2686            2687            2688            2689            2690
             2691            2692            2693            2694            2695            2696            2697            2698            2699            2700
             2701            2702            2703            2704            2705            2706            2707            2708            2709            2710
             2711            2712            2713            2714            2715            2716            2717            2718            2719            2720
             2721            2722            2723            2724            2725            2726            2727            2728            2729            2730
             2731            2732            2733            2734            2735            2736            2737            2738            2739            2740
             2741            2742            2743            2744            2745            2746            2747            2748            2749            2750
             2751            2752            2753            2754            2755            2756            2757            2758            2759            2760
             2761            2762            2763            2764            2765            2766            2767            2768            2769            2770
             2771            2772            2773            2774            2775            2776            2777            2778            2779            2780
             2781            2782            2783            2784            2785            2786            2787            2788            2789            2790
             2791            2792            2793            2794            2795            2796            2797            2798            2799            2800
             2801            2802            2803            2804            2805            2806            2807            2808            2809            2810
             2811            2812            2813            2814            2815            2816            2817            2818            2819            2820
             2821            2822            2823            2824            2825            2826            2827            2828            2829            2830
             2831            2832            2833            2834            2835            2836            2837            2838            2839            2840
             2841            2842            2843            2844            2845            2846            2847            2848            2849            2850
             2851            2852            2853            2854            2855            2856            2857            2858            2859            2860
             2861            2862            2863            2864            2865            2866            2867            2868            2869            2870
             2871            2872            2873            2874            2875            2876            2877            2878            2879            2880
             2881            2882            2883            2884            2885            2886            2887            2888            2889            2890
             2891            2892            2893            2894            2895            2896            2897            2898            2899            2900
             2901            2902            2903            2904            2905            2906            2907            2908            2909            2910
             2911            2912            2913            2914            2915            2916            2917            2918            2919            2920
             2921            2922            2923            2924            2925            2926            2927            2928            2929            2930
             2931            2932            2933            2934            2935            2936            2937            2938            2939            2940
             2941            2942            2943            2944            2945            2946            2947            2948            2949            2950
             2951            2952            2953            2954            2955            2956            2957            2958            2959            2960
             2961            2962            2963            2964            2965            2966            2967            2968            2969            2970
             2971            2972            2973            2974            2975            2976            2977            2978            2979            2980
             2981            2982            2983            2984            2985            2986            2987            2988            2989            2990
             2991            2992            2993            2994            2995            2996            2997            2998            2999            3000
             3001            3002            3003            3004            3005            3006            3007            3008            3009            3010
             3011            3012            3013            3014            3015            3016            3017            3018            3019            3020
             3021            3022            3023            3024            3025            3026            3027            3028            3029            3030
             3031            3032            3033            3034            3035            3036            3037            3038            3039            3040
             3041            3042            3043            3044            3045            3046            3047            3048            3049            3050
             3051            3052            3053            3054            3055            3056            3057            3058            3059            3060
             3061            3062            3063            3064            3065            3066            3067            3068            3069            3070
             3071            3072            3073            3074            3075            3076            3077            3078            3079            3080
             3081            3082            3083            3084            3085            3086            3087            3088            3089            3090
             3091            3092            3093            3094            3095            3096            3097            3098            3099            3100
             3101            3102            3103            3104            3105            3106            3107            3108            3109            3110
             3111            3112            3113            3114            3115            3116            3117            3118            3119            3120
             3121            3122            3123            3124            3125            3126            3127            3128            3129            3130
             3131            3132            3133            3134            3135            3136            3137            3138            3139            3140
             3141            3142            3143            3144            3145            3146            3147            3148            3149            3150
             3151            3152            3153            3154            3155            3156            3157            3158            3159            3160
             3161            3162            3163            3164            3165            3166            3167            3168            3169            3170
             3171            3172            3173            3174            3175            3176            3177            3178            3179            3180
             3181            3182            3183            3184            3185            3186            3187            3188            3189            3190
             3191            3192            3193            3194            3195            3196            3197            3198            3199            3200
             3201            3202            3203            3204            3205            3206            3207            3208            3209            3210
             3211            3212            3213            3214            3215            3216            3217            3218            3219            3220
             3221            3222            3223            3224            3225            3226            3227            3228            3229            3230
             3231            3232            3233            3234            3235            3236            3237            3238            3239            3240
             3241            3242            3243            3244            3245            3246            3247            3248            3249            3250
             3251            3252            3253            3254            3255            3256            3257            3258            3259            3260
             3261            3262            3263            3264            3265            3266            3267            3268            3269            3270
             3271            3272            3273            3274            3275            3276            3277            3278            3279            3280
             3281            3282            3283            3284            3285            3286            3287            3288            3289            3290
             3291            3292            3293            3294            3295            3296            3297            3298            3299            3300
             3301            3302            3303            3304            3305            3306            3307            3308            3309            3310
             3311            3312            3313            3314            3315            3316            3317            3318            3319            3320
             3321            3322            3323            3324            3325            3326            3327            3328            3329            3330
             3331            3332            3333            3334            3335            3336            3337            3338            3339            3340
             3341            3342            3343            3344            3345            3346            3347            3348            3349            3350
             3351            3352            3353            3354            3355            3356            3357            3358            3359            3360
             3361            3362            3363            3364            3365            3366            3367            3368            3369            3370
             3371            3372            3373            3374            3375            3376            3377            3378            3379            3380
             3381            3382            3383            3384            3385            3386            3387            3388            3389            3390
             3391            3392            3393            3394            3395            3396            3397            3398            3399            3400
             3401            3402            3403            3404            3405            3406            3407            3408            3409            3410
             3411            3412            3413            3414            3415            3416            3417            3418            3419            3420
             3421            3422            3423            3424            3425            3426            3427            3428            3429            3430
             3431            3432            3433            3434            3435            3436            3437            3438            3439            3440
             3441            3442            3443            3444            3445            3446            3447            3448            3449            3450
             3451            3452            3453            3454            3455            3456            3457            3458            3459            3460
             3461            3462            3463            3464            3465            3466            3467            3468            3469            3470
             3471            3472            3473            3474            3475            3476            3477            3478            3479            3480
             3481            3482            3483            3484            3485            3486            3487            3488            3489            3490
             3491            3492            3493            3494            3495            3496            3497            3498            3499            3500
             3501            3502            3503            3504            3505            3506            3507            3508            3509            3510
             3511            3512            3513            3514            3515            3516            3517            3518            3519            3520
             3521            3522            3523            3524            3525            3526            3527            3528            3529            3530
             3531            3532            3533            3534            3535            3536            3537            3538            3539            3540
             3541            3542            3543            3544            3545            3546            3547            3548            3549            3550
             3551            3552            3553            3554            3555            3556            3557            3558            3559            3560
             3561            3562            3563            3564            3565            3566            3567            3568            3569            3570
             3571            3572            3573            3574            3575            3576            3577            3578            3579            3580
             3581            3582            3583            3584            3585            3586            3587            3588            3589            3590
             3591            3592            3593            3594            3595            3596            3597            3598            3599            3600
             3601            3602            3603            3604            3605            3606            3607            3608            3609            3610
             3611            3612            3613            3614            3615            3616            3617            3618            3619            3620
             3621            3622            3623            3624            3625            3626            3627            3628            3629            3630
             3631            3632            3633            3634            3635            3636            3637            3638            3639            3640
             3641            3642            3643            3644            3645            3646            3647            3648            3649            3650
             3651            3652            3653            3654            3655            3656            3657            3658            3659            3660
             3661            3662            3663            3664            3665            3666            3667            3668            3669            3670
             3671            3672            3673            3674            3675            3676            3677            3678            3679            3680
             3681            3682            3683            3684            3685            3686            3687            3688            3689            3690
             3691            3692            3693            3694            3695            3696            3697            3698            3699            3700
             3701            3702            3703            3704            3705            3706            3707            3708            3709            3710
             3711            3712            3713            3714            3715            3716            3717            3718            3719            3720
             3721            3722            3723            3724            3725            3726            3727            3728            3729            3730
             3731            3732            3733            3734            3735            3736            3737            3738            3739            3740
             3741            3742            3743            3744            3745            3746            3747            3748            3749            3750
             3751            3752            3753            3754            3755            3756            3757            3758            3759            3760
             3761            3762            3763            3764            3765            3766            3767            3768            3769            3770
             3771            3772            3773            3774            3775            3776            3777            3778            3779            3780
             3781            3782            3783
 ................................................................................................................................................................
   1      133.680         133.679         133.678         133.677         133.680         133.683         133.680         133.683         133.690         133.709    
          133.737         133.772         133.815         133.863         133.915         133.971         134.029         134.087         134.145         134.202    
          134.253         134.296         134.324         133.677         133.678         133.678         133.677         133.677         133.679         133.682    
          133.679         133.682         133.687         133.692         133.686         133.692         133.706         133.733         133.767         133.809    
          133.857         133.909         133.965         134.023         134.082         134.142         134.199         134.253         134.302         134.343    
          134.378         133.673         133.675         133.676         133.677         133.677         133.678         133.681         133.687         133.692    
          133.687         133.692         133.701         133.709         133.700         133.708         133.723         133.735         133.721         133.734    
          133.760         133.800         133.848         133.900         133.956         134.015         134.075         134.136         134.196         134.254    
          134.308         134.358         134.403         134.443         133.668         133.671         133.673         133.676         133.677         133.678    
          133.680         133.683         133.691         133.704         133.720         133.733         133.720         133.731         133.749         133.763    
          133.746         133.762         133.792         133.838         133.889         133.946         134.006         134.067         134.129         134.191    
          134.252         134.312         134.369         134.423         134.473         134.519         133.663         133.666         133.670         133.673    
          133.676         133.678         133.681         133.684         133.688         133.696         133.708         133.726         133.746         133.761    
          133.747         133.760         133.780         133.796         133.778         133.796         133.830         133.880         133.937         133.997    
          134.058         134.121         134.185         134.250         134.314         134.377         134.439         134.499         134.556         134.609    
          133.657         133.661         133.665         133.669         133.674         133.678         133.682         133.686         133.690         133.696    
          133.703         133.715         133.732         133.756         133.779         133.797         133.781         133.797         133.818         133.837    
          133.818         133.839         133.875         133.931         133.990         134.051         134.114         134.179         134.246         134.314    
          134.383         134.452         134.520         134.588         134.654         134.717         133.651         133.655         133.659         133.665    
          133.670         133.676         133.681         133.687         133.692         133.698         133.705         133.714         133.726         133.742    
          133.764         133.794         133.821         133.841         133.825         133.843         133.866         133.887         133.867         133.890    
          133.929         133.986         134.046         134.108         134.173         134.241         134.312         134.385         134.460         134.537    
          134.615         134.694         134.773         134.850         133.644         133.648         133.653         133.659         133.665         133.672    
          133.679         133.686         133.693         133.700         133.708         133.717         133.727         133.740         133.757         133.778    
          133.806         133.842         133.872         133.895         133.878         133.898         133.921         133.943         133.924         133.948    
          133.987         134.043         134.103         134.166         134.235         134.308         134.385         134.465         134.550         134.637    
          134.728         134.823         134.921         135.021         133.639         133.642         133.647         133.652         133.654         133.651    
          133.654         133.659         133.667         133.675         133.683         133.691         133.700         133.709         133.719         133.730    
          133.742         133.757         133.774         133.796         133.824         133.857         133.898         133.930         133.953         133.936    
          133.957         133.980         134.002         133.984         134.005         134.032         134.055         134.034         134.056         134.087    
          134.113         134.086         134.114         134.161         134.228         134.301         134.381         134.467         134.557         134.653    
          134.754         134.862         134.980         135.112         135.284         135.432         135.564         135.688         135.806         135.920    
          136.030         136.137         136.242         136.346         136.449         136.551         136.653         136.756         136.861         136.968    
          137.077         137.190         137.307         137.427         137.549         137.673         137.798         137.923         138.050         138.180    
          138.313         138.451         138.595         138.744         138.900         139.060         139.221         139.379         139.527         139.636    
          133.639         133.642         133.646         133.648         133.646         133.648         133.651         133.652         133.651         133.652    
          133.655         133.652         133.655         133.661         133.669         133.678         133.688         133.698         133.709         133.720    
          133.731         133.744         133.758         133.775         133.794         133.816         133.843         133.876         133.913         133.955    
          134.000         134.049         134.088         134.115         134.091         134.115         134.147         134.172         134.146         134.171    
          134.208         134.238         134.205         134.238         134.294         134.376         134.464         134.559         134.660         134.769    
          134.886         135.014         135.148         135.292         135.431         135.560         135.682         135.799         135.912         136.022    
          136.129         136.234         136.337         136.440         136.543         136.646         136.749         136.854         136.962         137.072    
          137.186         137.305         137.426         137.550         137.675         137.801         137.927         138.054         138.184         138.318    
          138.458         138.603         138.755         138.913         139.074         139.241         139.409         139.579         139.740         139.898    
          133.639         133.642         133.647         133.654         133.663         133.672         133.683         133.694         133.706         133.718    
          133.731         133.745         133.759         133.775         133.793         133.814         133.837         133.864         133.895         133.930    
          133.969         134.011         134.057         134.106         134.160         134.205         134.238         134.206         134.238         134.290    
          134.370         134.459         134.556         134.660         134.774         134.896         135.027         135.161         135.294         135.426    
          135.551         135.671         135.786         135.898         136.006         136.113         136.218         136.321         136.425         136.528    
          136.632         136.736         136.843         136.952         137.064         137.180         137.301         137.425         137.551         137.678    
          137.805         137.932         138.060         138.191         138.327         138.468         138.616         138.771         138.931         139.097    
          139.270         139.449         139.638         139.824         140.003         140.165         133.640         133.643         133.648         133.656    
          133.666         133.676         133.688         133.700         133.714         133.728         133.743         133.758         133.775         133.792    
          133.812         133.834         133.858         133.885         133.915         133.949         133.985         134.025         134.068         134.114    
          134.166         134.208         134.239         134.212         134.239         134.275         134.304         134.273         134.307         134.365    
          134.452         134.548         134.654         134.769         134.893         135.027         135.159         135.287         135.415         135.537    
          135.654         135.768         135.878         135.985         136.091         136.196         136.300         136.404         136.509         136.614    
          136.720         136.828         136.940         137.054         137.172         137.297         137.424         137.552         137.681         137.810    
          137.938         138.068         138.200         138.337         138.481         138.630         138.788         138.952         139.124         139.302    
          139.489         139.689         139.887         140.079         140.257         140.409         133.641         133.644         133.650         133.659    
          133.669         133.681         133.694         133.708         133.722         133.738         133.755         133.772         133.790         133.810    
          133.830         133.853         133.878         133.905         133.935         133.968         134.003         134.041         134.082         134.126    
          134.175         134.230         134.276         134.309         134.280         134.308         134.347         134.380         134.346         134.382    
          134.444         134.538         134.642         134.757         134.881         135.015         135.147         135.273         135.399         135.519    
          135.634         135.746         135.854         135.961         136.066         136.171         136.276         136.381         136.487         136.594    
          136.702         136.813         136.926         137.043         137.164         137.292         137.423         137.553         137.684         137.815    
          137.945         138.077         138.210         138.347         138.492         138.645         138.805         138.973         139.150         139.332    
          139.524         139.728         139.932         140.129         140.315         140.481         140.614         133.643         133.646         133.653    
          133.662         133.673         133.686         133.700         133.715         133.731         133.749         133.767         133.786         133.806    
          133.826         133.849         133.872         133.898         133.926         133.956         133.988         134.022         134.059         134.099    
          134.141         134.188         134.240         134.299         134.348         134.383         134.352         134.382         134.424         134.459    
          134.422         134.460         134.527         134.628         134.740         134.863         134.998         135.130         135.255         135.379    
          135.498         135.611         135.721         135.827         135.934         136.039         136.144         136.250         136.357         136.464    
          136.573         136.684         136.797         136.913         137.033         137.158         137.288         137.422         137.555         137.687    
          137.820         137.952         138.085         138.219         138.357         138.503         138.659         138.822         138.992         139.172    
          139.359         139.554         139.759         139.962         140.158         140.346         140.519         140.665         140.776         133.645    
          133.649         133.656         133.665         133.677         133.691         133.707         133.723         133.741         133.759         133.779    
          133.800         133.821         133.843         133.866         133.891         133.917         133.945         133.975         134.008         134.042    
          134.078         134.117         134.159         134.203         134.253         134.309         134.371         134.423         134.460         134.426    
          134.458         134.504         134.541         134.500         134.542         134.614         134.722         134.843         134.976         135.108    
          135.233         135.356         135.473         135.585         135.693         135.799         135.905         136.010         136.116         136.223    
          136.331         136.441         136.552         136.666         136.783         136.902         137.026         137.153         137.286         137.422    
          137.557         137.691         137.825         137.959         138.094         138.230         138.368         138.514         138.670         138.836    
          139.009         139.191         139.384         139.582         139.783         139.980         140.170         140.356         140.532         140.683    
          140.802         140.874         133.648         133.652         133.659         133.670         133.682         133.697         133.714         133.731    
          133.750         133.770         133.791         133.813         133.835         133.859         133.883         133.908         133.935         133.964    
          133.995         134.027         134.062         134.098         134.137         134.178         134.222         134.269         134.322         134.380    
          134.445         134.501         134.541         134.504         134.538         134.587         134.627         134.583         134.628         134.706    
          134.824         134.955         135.086         135.210         135.331         135.447         135.558         135.665         135.770         135.875    
          135.981         136.088         136.196         136.306         136.418         136.532         136.649         136.770         136.894         137.020    
          137.150         137.286         137.423         137.560         137.696         137.831         137.966         138.103         138.240         138.380    
          138.527         138.683         138.847         139.023         139.210         139.407         139.605         139.800         139.989         140.172    
          140.353         140.526         140.648         140.705         140.636         140.702         140.796         140.862         133.651         133.656    
          133.663         133.674         133.688         133.703         133.721         133.740         133.760         133.781         133.803         133.826    
          133.849         133.874         133.899         133.925         133.953         133.983         134.014         134.047         134.082         134.119    
          134.158         134.199         134.242         134.289         134.339         134.394         134.455         134.525         134.584         134.628    
          134.586         134.619         134.636         134.619         134.636         134.678         134.721         134.673         134.723         134.810    
          134.913         134.968         134.903         134.966         135.065         135.189         135.308         135.421         135.530         135.636    
          135.740         135.845         135.952         136.059         136.169         136.281         136.396         136.514         136.635         136.760    
          136.888         137.018         137.151         137.287         137.425         137.563         137.701         137.838         137.975         138.112    
          138.251         138.393         138.541         138.697         138.862         139.036         139.228         139.429         139.623         139.810    
          139.991         140.167         140.342         140.479         140.545         140.469         140.533         140.610         140.639         140.606    
          140.635         140.688         140.614         140.673         140.770         140.835         133.655         133.660         133.668         133.679    
          133.694         133.710         133.728         133.748         133.769         133.791         133.815         133.839         133.863         133.888    
          133.914         133.941         133.970         134.000         134.033         134.067         134.103         134.141         134.180         134.222    
          134.265         134.311         134.361         134.414         134.472         134.538         134.591         134.629         134.598         134.632    
          134.674         134.723         134.677         134.725         134.803         134.897         134.948         134.974         134.946         134.972    
          134.891         134.953         135.025         135.078         135.015         135.076         135.170         135.285         135.394         135.501    
          135.607         135.711         135.817         135.923         136.031         136.143         136.258         136.376         136.498         136.624    
          136.752         136.885         137.020         137.155         137.292         137.430         137.568         137.707         137.846         137.984    
          138.123         138.264         138.407         138.556         138.713         138.879         139.056         139.250         139.449         139.637    
          139.815         139.986         140.154         140.321         140.480         140.622         140.735         140.799         133.659         133.664    
          133.673         133.685         133.700         133.717         133.736         133.756         133.778         133.801         133.826         133.850    
          133.876         133.902         133.929         133.956         133.986         134.018         134.051         134.087         134.124         134.163    
          134.203         134.245         134.290         134.336         134.386         134.439         134.496         134.558         134.628         134.685    
          134.729         134.692         134.735         134.805         134.889         134.936         134.961         134.933         134.961         134.887    
          134.931         134.959         134.932         134.956         135.008         135.071         135.002         135.063         135.134         135.181    
          135.123         135.178         135.263         135.369         135.475         135.579         135.683         135.788         135.895         136.005    
          136.118         136.236         136.358         136.484         136.614         136.748         136.885         137.024         137.163         137.300    
          137.437         137.576         137.715         137.855         137.995         138.137         138.279         138.424         138.577         138.696    
          138.763         138.701         138.779         138.901         139.081         139.273         139.423         139.505         139.426         139.496    
          139.532         139.500         139.536         139.605         139.681         139.604         139.688         139.814         139.978         140.140    
          140.298         140.450         140.588         140.697         140.759         133.663         133.669         133.678         133.691         133.706    
          133.724         133.743         133.764         133.787         133.811         133.836         133.861         133.888         133.915         133.934    
          133.945         133.938         133.951         133.971         134.002         134.035         134.070         134.106         134.145         134.184    
          134.226         134.270         134.315         134.363         134.414         134.468         134.525         134.586         134.653         134.704    
          134.744         134.716         134.750         134.791         134.832         134.795         134.841         134.887         134.943         134.893    
          134.938         134.988         135.011         134.987         135.010         135.057         134.995         135.051         135.105         135.127    
          135.102         135.124         135.170         135.107         135.162         135.227         135.270         135.216         135.265         135.347    
          135.450         135.553         135.656         135.760         135.868         135.979         136.095         136.216         136.342         136.473    
          136.608         136.747         136.888         137.031         137.173         137.280         137.337         137.280         137.346         137.447    
          137.586         137.726         137.867         138.009         138.152         138.297         138.446         138.602         138.717         138.776    
          138.808         138.781         138.813         138.734         138.803         138.882         138.954         138.896         138.964         139.104    
          139.295         139.433         139.523         139.438         139.526         139.590         139.623         139.592         139.624         139.689    
          139.610         139.691         139.812         139.969         140.123         140.275         140.422         140.556         140.662         140.723    
          133.666         133.674         133.685         133.698         133.714         133.731         133.751         133.772         133.795         133.820    
          133.845         133.872         133.899         133.919         133.930         133.923         133.935         133.940         133.946         133.943    
          133.948         133.958         133.951         133.963         133.984         134.017         134.052         134.088         134.126         134.165    
          134.207         134.250         134.295         134.342         134.392         134.444         134.498         134.555         134.615         134.680    
          134.749         134.804         134.847         134.812         134.853         134.919         134.994         135.037         135.058         135.035    
          135.057         134.993         135.043         135.100         135.155         135.094         135.148         135.199         135.218         135.196    
          135.215         135.254         135.202         135.245         135.327         135.429         135.530         135.631         135.734         135.842    
          135.955         136.075         136.199         136.329         136.465         136.606         136.749         136.895         137.043         137.155    
          137.213         137.161         137.220         137.270         137.299         137.274         137.303         137.355         137.299         137.361    
          137.430         137.488         137.419         137.446         137.422         137.449         137.498         137.599         137.739         137.881    
          138.025         138.170         138.318         138.472         138.630         138.789         138.951         139.083         139.165         139.086    
          139.156         139.194         139.161         139.197         139.268         139.350         139.270         139.363         139.446         139.513    
          139.547         139.515         139.549         139.453         139.537         139.613         139.691         139.623         139.689         139.810    
          139.959         140.108         140.256         140.399         140.529         140.632         140.691         133.681         133.693         133.706    
          133.722         133.740         133.759         133.781         133.804         133.828         133.854         133.881         133.909         133.938    
          133.967         133.999         134.032         134.068         134.106         134.145         134.186         134.229         134.274         134.321    
          134.369         134.420         134.474         134.529         134.586         134.645         134.707         134.773         134.822         134.861    
          134.829         134.867         134.926         134.994         135.031         135.050         135.029         135.048         134.996         135.035    
          135.088         135.139         135.085         135.135         135.212         135.311         135.410         135.510         135.611         135.713    
          135.820         135.935         136.058         136.186         136.320         136.461         136.607         136.756         136.905         137.055    
          137.201         137.344         137.445         137.510         137.458         137.514         137.617         137.756         137.898         138.042    
          138.189         138.340         138.497         138.618         138.686         138.624         138.681         138.712         138.686         138.716    
          138.771         138.841         138.776         138.853         138.929         139.000         138.933         139.011         139.069         139.110    
          139.069         139.115         139.184         139.074         139.121         139.077         139.123         139.170         139.209         139.170    
          139.214         139.277         139.371         139.261         139.301         139.262         139.307         139.377         139.460         139.542    
          139.466         139.546         139.664         139.782         139.845         139.781         139.836         139.864         139.837         139.865    
          139.924         139.983         139.925         139.982         140.097         140.243         140.384         140.510         140.609         140.667    
          133.702         133.716         133.731         133.748         133.768         133.789         133.812         133.836         133.863         133.890    
          133.919         133.949         133.980         134.013         134.048         134.085         134.124         134.165         134.208         134.252    
          134.298         134.346         134.396         134.448         134.502         134.558         134.615         134.673         134.734         134.778    
          134.804         134.786         134.816         134.839         134.875         134.849         134.883         134.935         135.017         135.085    
          135.132         135.088         135.129         135.183         135.224         135.169         135.188         135.168         135.187         135.225    
          135.299         135.397         135.498         135.598         135.699         135.807         135.900         135.952         135.892         135.951    
          136.022         136.079         136.015         136.080         136.152         136.208         136.147         136.212         136.317         136.463    
          136.614         136.766         136.920         137.073         137.222         137.364         137.502         137.639         137.775         137.915    
          138.060         138.209         138.361         138.517         138.632         138.709         138.640         138.700         138.731         138.702    
          138.733         138.785         138.860         138.795         138.862         138.939         139.019         138.945         139.007         139.040    
          139.007         139.044         139.081         139.126         139.087         139.126         139.173         139.217         139.178         139.217    
          139.110         139.203         139.264         139.312         139.267         139.315         139.386         139.272         139.319         139.277    
          139.320         139.371         139.410         139.373         139.413         139.455         139.487         139.459         139.490         139.551    
          139.482         139.552         139.673         139.784         139.852         139.792         139.851         139.959         140.101         140.243    
          140.378         140.500         140.597         140.653         133.727         133.741         133.758         133.777         133.798         133.820    
          133.845         133.872         133.900         133.929         133.960         133.992         134.027         134.063         134.101         134.142    
          134.185         134.229         134.275         134.322         134.372         134.423         134.475         134.530         134.585         134.642    
          134.700         134.759         134.799         134.828         134.811         134.838         134.860         134.893         134.873         134.901    
          134.930         134.960         134.937         134.970         135.025         135.111         135.179         135.227         135.182         135.231    
          135.299         135.395         135.496         135.575         135.617         135.574         135.622         135.697         135.781         135.827    
          135.780         135.833         135.889         135.950         135.892         135.953         136.014         136.081         136.017         136.084    
          136.135         136.161         136.136         136.162         136.215         136.152         136.220         136.324         136.474         136.627    
          136.783         136.940         137.096         137.211         137.270         137.220         137.281         137.349         137.409         137.339    
          137.367         137.343         137.371         137.422         137.522         137.659         137.795         137.934         138.081         138.231    
          138.382         138.534         138.646         138.721         138.652         138.728         138.838         138.953         139.011         139.048    
          139.016         139.048         138.958         139.038         139.116         139.208         139.124         139.195         139.231         139.197    
          139.233         139.302         139.399         139.306         139.404         139.530         139.687         139.833         139.974         140.114    
          140.252         140.385         140.504         140.598         140.653         133.753         133.769         133.787         133.807         133.830    
          133.854         133.881         133.909         133.939         133.971         134.005         134.040         134.078         134.118         134.160    
          134.204         134.250         134.297         134.346         134.396         134.448         134.502         134.556         134.612         134.668    
          134.725         134.783         134.842         134.905         134.949         134.982         134.961         134.992         135.023         135.056    
          135.034         135.068         135.104         135.141         135.115         135.153         135.191         135.239         135.204         135.246    
          135.290         135.328         135.299         135.338         135.383         135.426         135.394         135.437         135.484         135.526    
          135.496         135.538         135.581         135.619         135.640         135.622         135.643         135.595         135.639         135.685    
          135.728         135.696         135.740         135.785         135.840         135.800         135.848         135.899         135.960         135.911    
          135.973         136.024         136.091         136.037         136.103         136.160         136.231         136.171         136.242         136.343    
          136.492         136.648         136.806         136.964         137.118         137.266         137.368         137.436         137.378         137.446    
          137.543         137.679         137.815         137.956         138.103         138.255         138.407         138.557         138.664         138.738    
          138.674         138.731         138.761         138.735         138.765         138.818         138.880         138.826         138.889         138.963    
          139.045         138.973         139.036         139.069         139.040         139.073         139.132         139.220         139.144         139.223    
          139.315         139.390         139.428         139.391         139.430         139.326         139.410         139.504         139.573         139.510    
          139.580         139.703         139.853         139.996         140.137         140.273         140.403         140.519         140.610         140.664    
          133.782         133.799         133.818         133.841         133.865         133.891         133.920         133.950         133.982         134.017    
          134.054         134.093         134.134         134.178         134.224         134.271         134.320         134.369         134.420         134.473    
          134.527         134.582         134.638         134.694         134.751         134.808         134.868         134.930         134.997         135.072    
          135.155         135.244         135.339         135.439         135.540         135.641         135.741         135.850         135.932         135.990    
          135.954         136.007         136.054         136.118         136.078         136.135         136.188         136.260         136.207         136.278    
          136.336         136.397         136.349         136.416         136.520         136.677         136.835         136.992         137.147         137.258    
          137.318         137.268         137.319         137.348         137.326         137.355         137.391         137.458         137.408         137.465    
          137.565         137.700         137.837         137.980         138.130         138.285         138.436         138.584         138.688         138.757    
          138.703         138.763         138.874         138.984         139.064         138.999         139.069         139.198         139.378         139.558    
          139.726         139.879         140.024         140.166         140.300         140.428         140.541         140.629         140.683         133.813    
          133.832         133.853         133.877         133.902         133.931         133.961         133.994         134.030         134.068         134.108    
          134.151         134.196         134.243         134.292         134.342         134.393         134.445         134.498         134.553         134.609    
          134.664         134.721         134.777         134.835         134.896         134.960         135.029         135.106         135.190         135.283    
          135.380         135.481         135.585         135.655         135.695         135.670         135.717         135.784         135.896         136.017    
          136.144         136.234         136.302         136.257         136.328         136.371         136.440         136.399         136.456         136.561    
          136.715         136.872         137.027         137.180         137.284         137.351         137.302         137.360         137.459         137.592    
          137.724         137.862         138.007         138.160         138.317         138.469         138.616         138.759         138.905         139.059    
          139.225         139.399         139.578         139.748         139.906         140.056         140.198         140.333         140.459         140.571    
          140.659         140.712         133.847         133.867         133.890         133.915         133.943         133.974         134.007         134.043    
          134.082         134.123         134.167         134.214         134.263         134.313         134.364         134.417         134.470         134.524    
          134.580         134.636         134.693         134.749         134.806         134.865         134.927         134.994         135.066         135.145    
          135.233         135.328         135.429         135.532         135.604         135.643         135.625         135.667         135.679         135.699    
          135.690         135.710         135.744         135.722         135.765         135.837         135.955         136.080         136.168         136.220    
          136.194         136.257         136.289         136.356         136.322         136.384         136.470         136.614         136.762         136.915    
          137.069         137.218         137.360         137.459         137.514         137.470         137.532         137.623         137.756         137.893    
          138.039         138.195         138.353         138.506         138.656         138.802         138.948         139.098         139.257         139.429    
          139.606         139.775         139.935         140.088         140.232         140.369         140.496         140.609         140.699         140.751    
          133.884         133.906         133.930         133.957         133.988         134.021         134.057         134.097         134.140         134.184    
          134.233         134.283         134.335         134.388         134.442         134.497         134.553         134.609         134.666         134.723    
          134.780         134.838         134.898         134.963         135.033         135.108         135.189         135.280         135.379         135.481    
          135.585         135.689         135.793         135.904         136.026         136.154         136.235         136.296         136.269         136.334    
          136.359         136.422         136.395         136.454         136.536         136.673         136.815         136.964         137.114         137.264    
          137.367         137.421         137.386         137.443         137.472         137.498         137.481         137.507         137.553         137.515    
          137.569         137.664         137.797         137.934         138.079         138.236         138.395         138.551         138.704         138.851    
          138.997         139.144         139.299         139.466         139.638         139.807         139.967         140.121         140.269         140.409    
          140.538         140.654         140.744         140.796         133.924         133.947         133.974         134.004         134.037         134.073    
          134.114         134.144         134.162         134.152         134.170         134.187         134.208         134.188         134.198         134.192    
          134.201         134.218         134.251         134.304         134.358         134.413         134.469         134.525         134.583         134.640    
          134.698         134.756         134.815         134.875         134.937         135.004         135.077         135.155         135.241         135.335    
          135.437         135.544         135.654         135.760         135.867         135.980         136.108         136.237         136.316         136.375    
          136.354         136.394         136.418         136.410         136.434         136.435         136.496         136.472         136.530         136.606    
          136.735         136.872         137.016         137.163         137.310         137.450         137.583         137.717         137.851         137.989    
          138.136         138.288         138.442         138.601         138.755         138.904         139.050         139.196         139.348         139.509    
          139.675         139.842         140.002         140.158         140.309         140.451         140.584         140.701         140.793         140.845    
          133.967         133.993         134.022         134.054         134.091         134.131         134.174         134.205         134.229         134.215    
          134.236         134.272         134.326         134.382         134.439         134.497         134.556         134.615         134.675         134.734    
          134.794         134.854         134.916         134.981         135.051         135.129         135.213         135.303         135.402         135.511    
          135.627         135.740         135.846         135.948         136.019         136.072         136.060         136.122         136.150         136.207    
          136.172         136.196         136.190         136.215         136.252         136.329         136.402         136.456         136.445         136.496    
          136.515         136.575         136.556         136.610         136.680         136.800         136.931         137.072         137.216         137.363    
          137.506         137.643         137.779         137.915         138.057         138.203         138.346         138.495         138.652         138.805    
          138.954         139.103         139.251         139.401         139.559         139.720         139.882         140.042         140.198         140.349    
          140.495         140.630         140.751         140.845         140.897         134.015         134.043         134.075         134.110         134.150    
          134.195         134.242         134.295         134.350         134.407         134.467         134.528         134.589         134.650         134.712    
          134.774         134.835         134.898         134.963         135.033         135.109         135.193         135.284         135.381         135.486    
          135.606         135.730         135.847         135.951         136.057         136.182         136.252         136.317         136.308         136.363    
          136.432         136.541         136.603         136.656         136.641         136.696         136.715         136.762         136.751         136.783    
          136.804         136.797         136.818         136.825         136.877         136.855         136.909         136.991         137.086         137.145    
          137.105         137.173         137.270         137.421         137.569         137.665         137.724         137.692         137.765         137.804    
          137.864         137.838         137.903         137.991         138.132         138.228         138.284         138.249         138.316         138.359    
          138.419         138.364         138.390         138.374         138.400         138.447         138.550         138.661         138.725         138.680    
          138.754         138.857         139.010         139.160         139.309         139.458         139.611         139.769         139.928         140.086    
          140.241         140.392         140.539         140.678         140.801         140.897         140.949         134.067         134.098         134.133    
          134.173         134.217         134.266         134.319         134.375         134.435         134.496         134.560         134.624         134.688    
          134.753         134.817         134.882         134.949         135.019         135.096         135.179         135.270         135.369         135.475    
          135.595         135.727         135.858         135.982         136.091         136.200         136.317         136.430         136.495         136.540    
          136.544         136.592         136.639         136.691         136.739         136.732         136.762         136.781         136.779         136.798    
          136.788         136.837         136.826         136.857         136.877         136.871         136.891         136.890         136.947         136.925    
          136.982         137.013         137.067         137.042         137.104         137.115         137.143         137.129         137.157         137.206    
          137.173         137.231         137.334         137.490         137.594         137.655         137.625         137.700         137.708         137.737    
          137.725         137.755         137.806         137.776         137.851         137.880         137.926         137.955         137.943         137.972    
          137.922         137.990         138.021         138.080         138.057         138.121         138.155         138.210         138.186         138.247    
          138.278         138.344         138.311         138.376         138.411         138.483         138.444         138.515         138.614         138.715    
          138.768         138.799         138.782         138.813         138.744         138.822         138.871         138.938         138.898         138.968    
          139.067         139.216         139.322         139.386         139.342         139.420         139.471         139.535         139.502         139.566    
          139.623         139.689         139.653         139.718         139.778         139.845         139.807         139.873         139.934         140.000    
          139.960         140.026         140.088         140.154         140.113         140.178         140.241         140.308         140.261         140.335    
          140.393         140.457         140.412         140.484         140.540         140.604         140.559         140.628         140.724         140.850    
          140.947         141.000         134.125         134.160         134.199         134.243         134.291         134.345         134.402         134.463    
          134.528         134.594         134.661         134.729         134.797         134.865         134.934         135.005         135.082         135.165    
          135.257         135.357         135.468         135.590         135.725         135.867         136.005         136.132         136.239         136.344    
          136.457         136.512         136.551         136.571         136.616         136.585         136.604         136.611         136.628         136.653    
          136.667         136.699         136.739         136.782         136.820         136.819         136.859         136.862         136.908         136.898    
          136.943         136.960         136.997         137.019         137.011         137.033         136.994         137.050         137.075         137.140    
          137.113         137.166         137.261         137.413         137.570         137.671         137.745         137.706         137.785         137.820    
          137.870         137.900         137.886         137.915         137.860         137.931         137.962         138.028         138.001         138.044    
          138.068         138.058         138.084         138.093         138.136         138.162         138.149         138.175         138.104         138.130    
          138.119         138.143         138.188         138.219         138.261         138.285         138.273         138.298         138.256         138.310    
          138.344         138.390         138.417         138.405         138.432         138.358         138.386         138.374         138.402         138.448    
          138.481         138.558         138.520         138.591         138.685         138.781         138.854         138.809         138.885         138.929    
          139.002         138.965         139.029         139.083         139.145         139.114         139.177         139.229         139.291         139.262    
          139.324         139.373         139.450         139.409         139.472         139.579         139.732         139.883         140.034         140.186    
          140.288         140.359         140.314         140.380         140.435         140.508         140.463         140.529         140.583         140.654    
          140.611         140.673         140.730         140.788         140.748         140.812         140.896         140.994         141.046         134.190    
          134.228         134.271         134.319         134.373         134.431         134.494         134.560         134.629         134.700         134.772    
          134.844         134.916         134.989         135.065         135.149         135.242         135.343         135.455         135.579         135.717    
          135.866         136.013         136.149         136.270         136.377         136.487         136.594         136.685         136.765         136.802    
          136.828         136.837         136.855         136.868         136.871         136.886         136.862         136.881         136.895         136.895    
          136.909         136.899         136.930         136.932         136.976         136.966         137.009         137.027         137.087         137.059    
          137.116         137.198         137.343         137.497         137.653         137.753         137.802         137.833         137.817         137.848    
          137.790         137.858         137.898         137.968         137.938         137.997         138.016         138.040         138.029         138.052    
          138.093         138.065         138.125         138.155         138.221         138.186         138.248         138.334         138.420         138.488    
          138.452         138.523         138.559         138.631         138.594         138.666         138.707         138.766         138.742         138.800    
          138.843         138.916         138.880         138.939         139.043         139.194         139.344         139.495         139.648         139.799    
          139.946         140.094         140.242         140.387         140.533         140.678         140.773         140.837         140.795         140.852    
          140.903         140.950         140.917         140.969         141.030         141.077         134.261         134.303         134.351         134.404    
          134.462         134.526         134.595         134.666         134.741         134.817         134.893         134.969         135.048         135.132    
          135.224         135.325         135.435         135.559         135.698         135.849         136.003         136.147         136.279         136.401    
          136.513         136.620         136.712         136.791         136.826         136.850         136.862         136.877         136.889         136.893    
          136.905         136.879         136.893         136.907         136.908         136.922         136.917         136.929         136.942         136.945    
          136.957         136.936         136.952         136.963         136.967         136.979         136.972         137.003         137.001         137.044    
          137.043         137.082         137.075         137.099         137.092         137.118         137.161         137.142         137.198         137.285    
          137.434         137.585         137.731         137.879         138.019         138.101         138.139         138.162         138.151         138.175    
          138.132         138.185         138.218         138.284         138.254         138.308         138.400         138.491         138.559         138.521    
          138.592         138.629         138.699         138.664         138.722         138.821         138.966         139.115         139.269         139.423    
          139.575         139.725         139.872         140.016         140.161         140.303         140.442         140.581         140.719         140.852    
          140.936         140.987         140.950         140.995         141.035         141.063         141.045         141.073         141.086         141.096    
          134.340         134.386         134.438         134.497         134.561         134.631         134.706         134.784         134.864         134.945    
          135.027         135.113         135.204         135.304         135.414         135.536         135.673         135.821         135.974         136.127    
          136.272         136.406         136.529         136.637         136.733         136.815         136.883         136.908         136.931         136.946    
          136.972         136.957         136.982         137.001         137.024         137.013         137.047         137.056         137.086         137.129    
          137.242         137.381         137.524         137.667         137.812         137.955         138.087         138.211         138.337         138.471    
          138.560         138.627         138.589         138.656         138.748         138.900         139.052         139.203         139.357         139.511    
          139.663         139.812         139.956         140.095         140.232         140.366         140.497         140.626         140.753         140.874    
          140.983         141.070         141.120         134.426         134.476         134.535         134.600         134.671         134.749         134.831    
          134.916         135.003         135.092         135.185         135.285         135.394         135.514         135.646         135.792         135.945    
          136.103         136.257         136.400         136.530         136.646         136.748         136.838         136.912         136.974         137.028    
          137.080         137.106         137.138         137.146         137.180         137.227         137.344         137.477         137.616         137.758    
          137.895         138.032         138.159         138.283         138.412         138.500         138.555         138.529         138.599         138.628    
          138.698         138.672         138.731         138.832         138.993         139.151         139.305         139.457         139.611         139.762    
          139.908         140.045         140.178         140.306         140.430         140.548         140.664         140.776         140.883         140.982    
          141.069         141.120         134.520         134.578         134.643         134.716         134.797         134.884         134.974         135.068    
          135.165         135.267         135.376         135.494         135.622         135.764         135.918         136.077         136.237         136.391    
          136.532         136.658         136.768         136.865         136.947         137.015         137.074         137.127         137.181         137.205    
          137.238         137.255         137.290         137.288         137.334         137.338         137.385         137.450         137.576         137.712    
          137.847         137.980         138.068         138.120         138.098         138.164         138.190         138.242         138.231         138.283    
          138.314         138.369         138.356         138.412         138.443         138.497         138.488         138.544         138.571         138.644    
          138.620         138.679         138.776         138.936         139.100         139.262         139.415         139.568         139.719         139.867    
          140.008         140.139         140.263         140.380         140.491         140.594         140.693         140.787         140.879         140.965    
          141.061         141.115         134.627         134.693         134.768         134.852         134.944         135.041         135.142         135.248    
          135.358         135.476         135.602         135.741         135.894         136.053         136.215         136.378         136.533         136.671    
          136.791         136.896         136.985         137.061         137.127         137.185         137.238         137.294         137.360         137.401    
          137.447         137.453         137.501         137.507         137.560         137.560         137.612         137.680         137.810         137.893    
          137.947         137.931         138.000         138.020         138.072         138.070         138.122         138.141         138.207         138.191    
          138.242         138.321         138.454         138.589         138.731         138.886         139.046         139.213         139.376         139.531    
          139.685         139.833         139.976         140.110         140.232         140.346         140.451         140.546         140.632         140.711    
          140.785         140.865         140.919         134.750         134.827         134.916         135.012         135.115         135.224         135.339    
          135.459         135.586         135.724         135.873         136.031         136.196         136.364         136.531         136.684         136.816    
          136.929         137.027         137.110         137.182         137.246         137.304         137.358         137.418         137.486         137.577    
          137.629         137.680         137.689         137.742         137.744         137.795         137.808         137.859         137.866         137.918    
          137.928         137.980         137.987         138.055         138.050         138.101         138.175         138.298         138.425         138.561    
          138.696         138.842         138.997         139.157         139.326         139.493         139.650         139.800         139.944         140.081    
          140.206         140.320         140.424         140.515         140.591         140.658         140.717         140.761         134.897         134.989    
          135.089         135.199         135.316         135.440         135.570         135.708         135.855         136.011         136.177         136.348    
          136.523         136.691         136.840         136.964         137.071         137.163         137.241         137.310         137.372         137.430    
          137.490         137.557         137.634         137.729         137.830         137.942         138.062         138.183         138.306         138.424    
          138.547         138.677         138.809         138.956         139.110         139.268         139.438         139.606         139.759         139.906    
          140.046         140.174         140.289         140.396         140.491         140.565         140.619         140.663         135.071         135.175    
          135.291         135.416         135.550         135.689         135.836         135.991         136.155         136.328         136.507         136.688    
          136.856         136.998         137.115         137.216         137.301         137.373         137.438         137.501         137.567         137.639    
          137.716         137.812         137.916         138.020         138.130         138.244         138.355         138.463         138.570         138.682    
          138.801         138.927         139.070         139.218         139.369         139.530         139.695         139.846         139.990         140.125    
          140.243         140.345         140.446         140.534         140.592         135.271         135.393         135.528         135.670         135.814    
          135.967         136.129         136.301         136.481         136.668         136.852         137.017         137.152         137.262         137.353    
          137.429         137.495         137.560         137.627         137.703         137.792         137.899         138.030         138.158         138.270    
          138.375         138.468         138.551         138.633         138.717         138.810         138.913         139.032         139.165         139.301    
          139.436         139.579         139.746         139.898         140.040         140.170         140.278         140.351         135.509         135.650    
          135.794         135.941         136.096         136.262         136.440         136.625         136.815         137.000         137.161         137.291    
          137.392         137.472         137.538         137.595         137.654         137.718         137.803         137.916         138.067         138.254    
          138.417         138.544         138.629         138.676         138.717         138.765         138.823         138.897         138.987         139.098    
          139.221         139.346         139.460         139.545         135.781         135.922         136.064         136.215         136.380         136.560    
          136.749         136.939         137.124         137.281         137.406         137.497         137.565         137.618         137.654         137.695    
          136.050         136.182         136.316         136.475         136.657         136.845         137.037         137.219         137.371         137.491    
          137.571         137.620         137.660         136.289         136.379         136.536         136.719         136.902         137.098         137.280    
          137.427         137.538         137.603    

 HEAD WILL BE SAVED ON UNIT 1020 AT END OF TIME STEP    1, STRESS PERIOD    2

 SFR PACKAGE (SFR) STAGES FOR EACH CONTROL VOLUME   PERIOD      2   STEP        1
 -------------------------------------------------------------------------------------------------------------
                                                                                      STREAMBED    STREAMBED  
   NUMBER   CELLID                  STAGE        DEPTH        WIDTH       GWF HEAD   CONDUCTANCE    GRADIENT  
 -------------------------------------------------------------------------------------------------------------
     1      (1,3210)              143.61       0.0000       0.0000       141.71       1016.1       1.0000     
     2      (1,3208)              143.50       0.0000       0.0000       141.47       319.68       1.0000     
     3      (1,3206)              143.45       0.0000       0.0000       141.47       615.17       1.0000     
     4      (1,3205)              143.45       0.0000       0.0000       141.33       955.58       1.0000     
     5      (1,3202)              143.45       0.0000       0.0000       141.20       490.75       1.0000     
     6      (1,3094)              143.45       0.0000       0.0000       141.18       478.66       1.0000     
     7      (1,3093)              143.42       0.0000       0.0000       141.08       1093.8       1.0000     
     8      (1,3090)              143.33       0.0000       0.0000       140.97       60.480       1.0000     
     9      (1,3088)              143.33       0.0000       0.0000       140.96       862.27       1.0000     
     10     (1,3087)              143.33       0.0000       0.0000       140.86       978.05       1.0000     
     11     (1,2975)              143.33       0.0000       0.0000       140.84       371.52       1.0000     
     12     (1,2972)              143.33       0.0000       0.0000       140.74       584.06       1.0000     
     13     (1,2970)              143.28       0.0000       0.0000       140.72       998.78       1.0000     
     14     (1,2969)              143.25       0.0000       0.0000       140.63       98.496       1.0000     
     15     (1,2817)              143.14       0.0000       0.0000       140.60       917.57       1.0000     
     16     (1,2814)              143.14       0.0000       0.0000       140.52       910.66       1.0000     
     17     (1,2813)              143.14       0.0000       0.0000       140.43       65.664       1.0000     
     18     (1,2965)              143.14       0.0000       0.0000       140.46       812.16       1.0000     
     19     (1,2962)              143.07       0.0000       0.0000       140.37       870.91       1.0000     
     20     (1,2961)              143.07       0.0000       0.0000       140.29       278.21       1.0000     
     21     (1,2809)              143.07       0.0000       0.0000       140.26       603.07       1.0000     
     22     (1,2806)              143.07       0.0000       0.0000       140.16       893.38       1.0000     
     23     (1,2805)              143.07       0.0000       0.0000       140.10       884.74       1.0000     
     24     (1,2802)              143.07       0.0000       0.0000       140.00       910.66       1.0000     
     25     (1,2801)              143.07       0.0000       0.0000       139.93       153.79       1.0000     
     26     (1,2799)              143.03       0.0000       0.0000       139.91       781.06       1.0000     
     27     (1,2796)              143.03       0.0000       0.0000       139.82       889.92       1.0000     
     28     (1,2795)              143.03       0.0000       0.0000       139.76       877.82       1.0000     
     29     (1,2792)              143.03       0.0000       0.0000       139.67       884.74       1.0000     
     30     (1,2791)              143.03       0.0000       0.0000       139.61       896.83       1.0000     
     31     (1,2788)              143.03       0.0000       0.0000       139.52       172.80       1.0000     
     32     (1,2790)              143.03       0.0000       0.0000       139.55       730.94       1.0000     
     33     (1,2789)              143.03       0.0000       0.0000       139.48       908.93       1.0000     
     34     (1,2786)              143.03       0.0000       0.0000       139.40       891.65       1.0000     
     35     (1,2785)              143.03       0.0000       0.0000       139.32       454.46       1.0000     
     36     (1,2952)              143.03       0.0000       0.0000       139.35       442.37       1.0000     
     37     (1,2949)              143.03       0.0000       0.0000       139.26       881.28       1.0000     
     38     (1,2948)              143.03       0.0000       0.0000       139.20       881.28       1.0000     
     39     (1,2945)              143.01       0.0000       0.0000       139.11       902.02       1.0000     
     40     (1,2944)              142.55       0.0000       0.0000       139.05       806.98       1.0000     
     41     (1,2946)              142.55       0.0000       0.0000       139.07       82.944       1.0000     
     42     (1,2943)              142.05       0.0000       0.0000       138.99       902.02       1.0000     
     43     (1,2942)              141.75       0.0000       0.0000       138.92       898.56       1.0000     
     44     (1,2939)              141.22       0.0000       0.0000       138.84       876.10       1.0000     
     45     (1,2938)              140.98       0.0000       0.0000       138.77       926.21       1.0000     
     46     (1,3071)              140.62       0.0000       0.0000       138.79       5.1840       1.0000     
     47     (1,3068)              140.43       0.0000       0.0000       138.71       1069.6       1.0000     
     48     (1,3067)              140.43       0.0000       0.0000       138.65       362.88       1.0000     
     49     (1,3069)              140.05       0.0000       0.0000       138.68       713.66       1.0000     
     50     (1,3066)              140.05       0.0000       0.0000       138.61       705.02       1.0000     
     51     (1,3183)              139.72       0.0000       0.0000       138.63       412.99       1.0000     
     52     (1,3182)              139.72       0.0000       0.0000       138.57       983.23       1.0000     
     53     (1,3184)              139.56       0.0000       0.0000       138.60       190.08       0.95705    
     54     (1,3181)              139.54       0.0000       0.0000       138.54       886.46       1.0000     
     55     (1,3262)              139.39       0.0000       0.0000       138.57       635.90       0.82195    
     56     (1,3261)              139.36       0.0000       0.0000       138.50       435.46       0.86067    
     57     (1,3263)              139.20       0.0000       0.0000       138.53       955.58       0.67364    
     58     (1,3330)              139.02       0.0000       0.0000       138.56       884.74       0.45736    
     59     (1,3332)              138.96       0.0000       0.0000       138.60       539.14       0.36014    
     60     (1,3329)              138.89       0.0000       0.0000       138.53       447.55       0.35832    
     61     (1,3410)              138.89       0.0000       0.0000       138.57       857.09       0.32295    
     62     (1,3409)              138.84       0.0000       0.0000       138.50       364.61       0.33903    
     63     (1,3411)              138.84       0.0000       0.0000       138.54       627.26       0.30125    
     64     (1,3408)              138.65       0.0000       0.0000       138.46       978.05       0.18531    
     65     (1,3407)              138.58       0.0000       0.0000       138.41       883.01       0.16961    
     66     (1,3404)              138.49       0.0000       0.0000       138.34       903.74       0.15234    
     67     (1,3403)              138.33       0.0000       0.0000       138.28       896.83       4.64643E-02
     68     (1,3400)              138.33       0.0000       0.0000       138.22       910.66       0.11456    
     69     (1,3399)              138.33       0.0000       0.0000       138.16       926.21       0.16876    
     70     (1,3396)              138.33       0.0000       0.0000       138.10       38.016       0.23297    
     71     (1,3479)              138.33       0.0000       0.0000       138.13       926.21       0.19692    
     72     (1,3478)              138.33       0.0000       0.0000       138.07       927.94       0.26337    
     73     (1,3475)              138.33       0.0000       0.0000       138.00       336.96       0.33254    
     74     (1,3477)              138.33       0.0000       0.0000       138.04       585.79       0.28904    
     75     (1,3476)              138.33       0.0000       0.0000       137.99       910.66       0.34169    
     76     (1,3473)              138.33       0.0000       0.0000       137.92       910.66       0.40600    
     77     (1,3472)              138.33       0.0000       0.0000       137.86       321.41       0.47059    
     78     (1,3543)              138.33       0.0000       0.0000       137.91       589.25       0.41857    
     79     (1,3540)              138.33       0.0000       0.0000       137.84       900.29       0.49243    
     80     (1,3539)              138.33       0.0000       0.0000       137.79       927.94       0.53729    
     81     (1,3536)              138.33       0.0000       0.0000       137.72       872.64       0.60656    
     82     (1,3535)              138.33       0.0000       0.0000       137.68       1164.7       0.64976    
     83     (1,3532)              138.33       0.0000       0.0000       137.63       190.08       0.70290    
     84     (1,3467)              138.33       0.0000       0.0000       137.57       1031.6       0.75912    
     85     (1,3466)              138.24       0.0000       0.0000       137.53       190.08       0.71469    
     86     (1,3464)              138.24       0.0000       0.0000       137.48       1031.6       0.75849    
     87     (1,3461)              137.98       0.0000       0.0000       137.42       190.08       0.56246    
     88     (1,3387)              137.98       0.0000       0.0000       137.36       1031.6       0.62006    
     89     (1,3386)              137.56       0.0000       0.0000       137.32       190.08       0.24423    
     90     (1,3384)              137.56       0.0000       0.0000       137.26       1031.6       0.29564    
     91     (1,3381)              137.21       0.0000       0.0000       137.20       190.08       5.85866E-03
     92     (1,3315)              137.21       0.0000       0.0000       137.14       1031.6       7.26755E-02
     93     (1,3314)              137.20       0.0000       0.0000       137.08       190.08       0.11501    
     94     (1,3312)              137.11       0.0000       0.0000       137.02       1099.0       8.90363E-02
     95     (1,3248)              136.90       1.68959E-03  2.0000       136.92       421.63      -2.07087E-02
     96     (1,3245)              136.64       7.88705E-03  2.0000       136.79       644.54      -0.14953    
     97     (1,3243)              136.64       1.40854E-02  2.0000       136.73       981.50      -9.07244E-02
     98     (1,3140)              136.65       1.70131E-02  2.0000       136.72       297.22      -7.28667E-02
     99     (1,3137)              136.65       1.85443E-02  2.0000       136.70       803.52      -5.18550E-02
    100     (1,3132)              136.65       2.01504E-02  2.0000       136.68       983.23      -2.90961E-02
    101     (1,3012)              136.65       2.10220E-02  2.0000       136.66       1054.1      -1.05720E-02
    102     (1,3010)              136.65       2.11688E-02  2.0000       136.64       632.45       6.86280E-03
    103     (1,3011)              136.65       2.13889E-02  2.0000       136.66       1263.2      -1.15584E-02
    104     (1,3017)              136.65       2.21137E-02  2.0000       136.71       336.96      -5.84349E-02
    105     (1,2866)              136.65       2.27977E-02  2.0000       136.67       910.66      -1.46774E-02
    106     (1,2864)              136.65       2.28910E-02  2.0000       136.64       615.17       1.43162E-02
    107     (1,2865)              136.65       2.29581E-02  2.0000       136.68       457.92      -2.64108E-02
    108     (1,2709)              136.65       2.30024E-02  2.0000       136.63       432.00       2.29595E-02
    109     (1,2707)              136.59       2.28488E-02  2.0000       136.60       584.06      -4.09824E-03
    110     (1,2705)              136.51       2.34122E-02  2.0000       136.54       864.00      -2.93701E-02
    111     (1,2606)              136.39       2.51622E-02  2.0000       136.45       934.85      -6.81686E-02
    112     (1,2604)              136.33       2.75149E-02  2.0000       136.40       864.00      -7.25905E-02
    113     (1,2534)              136.33       2.92690E-02  2.0000       136.37       872.64      -4.17099E-02
    114     (1,2532)              136.33       3.02616E-02  2.0000       136.36       867.46      -2.47637E-02
    115     (1,2449)              136.33       3.06249E-02  2.0000       136.33       430.27      -5.68127E-05
    116     (1,2448)              136.33       3.02783E-02  2.0000       136.29       546.05       3.76183E-02
    117     (1,2446)              136.31       2.90748E-02  2.0000       136.26       1021.2       4.84731E-02
    118     (1,2353)              136.31       2.78811E-02  2.0000       136.19       148.61       0.12168    
    119     (1,2350)              136.08       2.80304E-02  2.0000       136.11       943.49      -2.80183E-02
    120     (1,2348)              136.08       2.82686E-02  2.0000       136.05       508.03       2.57001E-02
    121     (1,2347)              136.01       2.79863E-02  2.0000       136.00       565.06       4.93971E-03
    122     (1,2271)              135.93       2.79329E-02  2.0000       135.93       855.36       2.31359E-04
    123     (1,2272)              135.93       2.80924E-02  2.0000       135.97       200.45      -4.55496E-02
    124     (1,2270)              135.93       2.79012E-02  2.0000       135.91       888.19       2.23330E-02
    125     (1,2273)              135.92       2.78431E-02  2.0000       135.94       888.19      -1.86826E-02
    126     (1,2274)              135.92       2.89840E-02  2.0000       135.98       739.58      -6.47751E-02
    127     (1,2185)              135.92       2.97521E-02  2.0000       135.90       205.63       1.70893E-02
    128     (1,2188)              135.91       3.03976E-02  2.0000       135.96       924.48      -4.47974E-02
    129     (1,2186)              135.67       3.34127E-02  2.0000       135.83       907.20      -0.15732    
    130     (1,2093)              135.68       3.75886E-02  2.0000       135.79       1152.6      -0.11376    
    131     (1,2090)              135.60       4.09069E-02  2.0000       135.72       888.19      -0.11433    
    132     (1,2089)              135.60       4.31536E-02  2.0000       135.67       926.21      -6.83935E-02
    133     (1,2086)              135.52       4.51876E-02  2.0000       135.62       910.66      -9.98960E-02
    134     (1,2085)              135.52       4.68414E-02  2.0000       135.60       433.73      -8.75321E-02
    135     (1,2083)              135.49       4.79540E-02  2.0000       135.55       860.54      -5.86930E-02
    136     (1,2080)              135.49       4.87054E-02  2.0000       135.53       229.82      -4.36168E-02
    137     (1,1971)              135.43       4.93681E-02  2.0000       135.47       993.60      -4.41567E-02
    138     (1,1969)              135.41       5.03514E-02  2.0000       135.45       1054.1      -3.51030E-02
    139     (1,1972)              135.41       5.13856E-02  2.0000       135.47       870.91      -5.65049E-02
    140     (1,1973)              135.37       5.32978E-02  2.0000       135.49       974.59      -0.11619    
    141     (1,1976)              135.38       5.52424E-02  2.0000       135.58       273.02      -0.20513    
    142     (1,1836)              135.38       5.75010E-02  2.0000       135.54       903.74      -0.16111    
    143     (1,1831)              135.38       5.92622E-02  2.0000       135.58       77.760      -0.19708    
    144     (1,1833)              135.38       6.02091E-02  2.0000       135.53       494.21      -0.14675    
    145     (1,1828)              135.38       6.19021E-02  2.0000       135.50       746.50      -0.11635    
    146     (1,1684)              135.38       6.34337E-02  2.0000       135.56       342.14      -0.17495    
    147     (1,1683)              135.39       6.50546E-02  2.0000       135.49       914.11      -0.10721    
    148     (1,1680)              135.39       6.67826E-02  2.0000       135.47       914.11      -8.00892E-02
    149     (1,1679)              135.39       6.77452E-02  2.0000       135.47       302.40      -7.75458E-02
    150     (1,1823)              135.35       6.84545E-02  2.0000       135.42       668.74      -7.23322E-02
    151     (1,1820)              135.35       6.93895E-02  2.0000       135.40       969.41      -4.85409E-02
    152     (1,1822)              135.33       7.03149E-02  2.0000       135.38       955.58      -5.04872E-02
    153     (1,1965)              135.33       7.12122E-02  2.0000       135.38       910.66      -4.93705E-02
    154     (1,1967)              135.33       7.22293E-02  2.0000       135.40       931.39      -6.61836E-02
    155     (1,1966)              135.33       7.31863E-02  2.0000       135.38       896.83      -4.41220E-02
    156     (1,1963)              135.28       7.39966E-02  2.0000       135.33       940.03      -4.98211E-02
    157     (1,1962)              135.20       7.49554E-02  2.0000       135.29       648.00      -8.67386E-02
    158     (1,1960)              135.14       7.60160E-02  2.0000       135.28       421.63      -0.13950    
    159     (1,1957)              135.09       7.70745E-02  2.0000       135.22       435.46      -0.13100    
    160     (1,1956)              135.09       7.81197E-02  2.0000       135.21       497.66      -0.11736    
    161     (1,1953)              135.09       7.90980E-02  2.0000       135.22       400.90      -0.12620    
    162     (1,1958)              135.09       8.01908E-02  2.0000       135.21       587.52      -0.12292    
    163     (1,1952)              135.09       8.15579E-02  2.0000       135.18       910.66      -9.11641E-02
    164     (1,1951)              135.09       8.28977E-02  2.0000       135.17       872.64      -8.11373E-02
    165     (1,1948)              135.09       8.40114E-02  2.0000       135.16       865.73      -6.73700E-02
    166     (1,1947)              135.09       8.49500E-02  2.0000       135.15       870.91      -5.90088E-02
    167     (1,1944)              135.10       8.57189E-02  2.0000       135.14       874.37      -4.47231E-02
    168     (1,1943)              135.10       8.63069E-02  2.0000       135.13       865.73      -3.51725E-02
    169     (1,1940)              135.09       8.67484E-02  2.0000       135.11       870.91      -2.52593E-02
    170     (1,1939)              135.06       8.71824E-02  2.0000       135.09       879.55      -3.37980E-02
    171     (1,1936)              135.06       8.75534E-02  2.0000       135.07       881.28      -1.65915E-02
    172     (1,1935)              135.06       8.77151E-02  2.0000       135.06       900.29      -5.27394E-03
    173     (1,1932)              135.06       8.76861E-02  2.0000       135.04       487.30       1.68757E-02
    174     (1,1930)              134.99       8.77326E-02  2.0000       135.02       461.38      -2.99061E-02
    175     (1,1929)              134.99       8.79177E-02  2.0000       135.00       946.94      -8.87663E-03
    176     (1,1926)              134.99       8.79128E-02  2.0000       134.97       589.25       1.52606E-02
    177     (1,1804)              134.98       8.77572E-02  2.0000       134.95       406.08       2.38366E-02
    178     (1,1803)              134.86       8.79647E-02  2.0000       134.89       965.95      -3.58046E-02
    179     (1,1800)              134.86       8.83195E-02  2.0000       134.87       577.15      -1.39811E-02
    180     (1,1798)              134.86       8.84309E-02  2.0000       134.87       428.54      -1.24899E-02
    181     (1,1797)              134.86       8.84388E-02  2.0000       134.85       905.47       4.86182E-03
    182     (1,1794)              134.86       8.82970E-02  2.0000       134.83       539.14       2.35060E-02
    183     (1,1653)              134.86       8.79903E-02  2.0000       134.83       864.00       2.80177E-02
    184     (1,1651)              134.86       8.75015E-02  2.0000       134.81       774.14       4.44403E-02
    185     (1,1654)              134.82       8.72497E-02  2.0000       134.83       502.85      -8.56947E-03
    186     (1,1521)              134.81       8.72615E-02  2.0000       134.80       907.20       3.20569E-03
    187     (1,1519)              134.81       8.71354E-02  2.0000       134.79       883.01       1.37541E-02
    188     (1,1394)              134.81       8.67497E-02  2.0000       134.77       902.02       3.74899E-02
    189     (1,1392)              134.80       8.59436E-02  2.0000       134.73       900.29       6.86405E-02
    190     (1,1266)              134.47       8.62109E-02  2.0000       134.57       927.94      -0.10070    
    191     (1,1264)              134.36       8.79910E-02  2.0000       134.50       853.63      -0.13931    
    192     (1,1261)              134.36       8.90988E-02  2.0000       134.48       122.69      -0.11980    
    193     (1,1153)              134.26       9.02652E-02  2.0000       134.39       991.87      -0.12823    
    194     (1,1151)              134.26       9.19672E-02  2.0000       134.39       628.99      -0.13047    
    195     (1,1150)              134.26       9.29480E-02  2.0000       134.37       361.15      -0.10989    
    196     (1,1063)              134.26       9.39040E-02  2.0000       134.35       979.78      -8.14766E-02
    197     (1,1061)              134.27       9.51211E-02  2.0000       134.35       889.92      -8.25841E-02
    198     (1,968)               134.27       9.58614E-02  2.0000       134.38       186.62      -0.10940    
    199     (1,965)               134.18       9.63166E-02  2.0000       134.30       297.22      -0.12639    
    200     (1,963)               134.18       9.70547E-02  2.0000       134.29       516.67      -0.11001    
    201     (1,960)               134.18       9.80541E-02  2.0000       134.31       546.05      -0.13139    
    202     (1,959)               134.18       9.91943E-02  2.0000       134.27       848.45      -8.96111E-02
    203     (1,878)               134.18       0.10010      2.0000       134.30       354.24      -0.11895    
    204     (1,875)               134.18       0.10088      2.0000       134.26       803.52      -7.50765E-02
    205     (1,873)               134.18       0.10176      2.0000       134.27       608.26      -9.07441E-02
    206     (1,872)               134.18       0.10244      2.0000       134.25       521.86      -6.71590E-02
    207     (1,794)               134.18       0.10314      2.0000       134.25       822.53      -7.12009E-02
    208     (1,791)               134.18       0.10369      2.0000       134.24       252.29      -5.95652E-02
    209     (1,789)               134.18       0.10427      2.0000       134.24       1130.1      -5.52605E-02
    210     (1,712)               134.18       0.10474      2.0000       134.27       12.096      -9.00488E-02
    211     (1,711)               134.19       0.10508      2.0000       134.22       1138.8      -3.92296E-02
    212     (1,709)               134.19       0.10548      2.0000       134.25       169.34      -6.10202E-02
    213     (1,706)               134.19       0.10567      2.0000       134.20       927.94      -1.63318E-02
    214     (1,630)               134.10       0.10610      2.0000       134.19       483.84      -8.99455E-02
    215     (1,629)               134.10       0.10666      2.0000       134.15       578.88      -5.50410E-02
    216     (1,627)               134.10       0.10720      2.0000       134.15       855.36      -5.04353E-02
    217     (1,624)               134.10       0.10759      2.0000       134.13       361.15      -2.74751E-02
    218     (1,549)               134.10       0.10772      2.0000       134.11       936.58      -7.97396E-03
    219     (1,547)               133.93       0.10838      2.0000       134.06       627.26      -0.13288    
    220     (1,546)               133.93       0.10966      2.0000       134.03       976.32      -9.67784E-02
    221     (1,543)               133.93       0.11035      2.0000       134.04       15.552      -0.10573    
    222     (1,469)               133.93       0.11089      2.0000       134.00       1042.0      -7.06071E-02
    223     (1,467)               133.93       0.11191      2.0000       134.00       1024.7      -6.90549E-02
    224     (1,394)               133.93       0.11270      2.0000       134.04       388.80      -0.10332    
    225     (1,393)               133.93       0.11340      2.0000       134.00       927.94      -6.37360E-02
    226     (1,390)               133.93       0.11411      2.0000       133.98       889.92      -4.74954E-02
    227     (1,389)               133.93       0.11466      2.0000       133.97       919.30      -4.00173E-02
    228     (1,387)               133.93       0.11499      2.0000       134.00       160.70      -6.16090E-02
    229     (1,384)               133.94       0.11531      2.0000       133.97       1038.5      -3.54845E-02
    230     (1,383)               133.94       0.11564      2.0000       133.97       326.59      -3.03348E-02
    231     (1,302)               133.94       0.11587      2.0000       133.97       701.57      -3.38986E-02
    232     (1,299)               133.94       0.11615      2.0000       133.95       907.20      -1.78325E-02
    233     (1,297)               133.94       0.11628      2.0000       133.97       119.23      -2.93699E-02
    234     (1,296)               133.94       0.11639      2.0000       133.95       921.02      -1.24291E-02
    235     (1,293)               133.94       0.11645      2.0000       133.93       884.74       2.80315E-03
    236     (1,292)               133.94       0.11634      2.0000       133.92       908.93       1.43115E-02
    237     (1,289)               133.94       0.11622      2.0000       133.89       114.05       4.27858E-02
    238     (1,250)               133.94       0.11596      2.0000       133.89       789.70       4.13138E-02
    239     (1,249)               133.94       0.11522      2.0000       133.86       979.78       7.50788E-02
    240     (1,246)               133.70       0.11482      2.0000       133.75       387.07      -4.15401E-02
    241     (1,244)               133.63       0.11521      2.0000       133.69       644.54      -6.22663E-02
    242     (1,243)               133.40       0.11649      2.0000       133.58       786.24      -0.18290    
    243     (1,209)               133.40       0.11797      2.0000       133.58       402.62      -0.17759    
    244     (1,206)               133.40       0.11915      2.0000       133.52       819.07      -0.12365    
    245     (1,204)               133.40       0.12021      2.0000       133.54       402.62      -0.13761    
    246     (1,203)               133.40       0.12116      2.0000       133.50       819.07      -0.10351    
    247     (1,171)               133.40       0.12205      2.0000       133.53       399.17      -0.12300    
    248     (1,168)               133.40       0.12297      2.0000       133.49       1017.8      -8.69947E-02
    249     (1,166)               133.40       0.12361      2.0000       133.53       57.024      -0.13007    
    250     (1,165)               133.40       0.12428      2.0000       133.48       1164.7      -7.97913E-02
    251     (1,135)               133.40       0.12494      2.0000       133.53       57.024      -0.12810    
    252     (1,132)               133.41       0.12555      2.0000       133.48       1164.7      -7.39602E-02
    253     (1,130)               133.41       0.12616      2.0000       133.53       57.024      -0.11938    
    254     (1,129)               133.41       0.12674      2.0000       133.48       1164.7      -7.03509E-02
    255     (1,101)               133.41       0.12732      2.0000       133.53       57.024      -0.11773    
    256     (1,98)                133.41       0.12788      2.0000       133.48       1164.7      -6.74794E-02
    257     (1,96)                133.41       0.12843      2.0000       133.52       57.024      -0.11174    
    258     (1,95)                133.41       0.12896      2.0000       133.47       1164.7      -6.48799E-02
    259     (1,69)                133.41       0.12948      2.0000       133.52       57.024      -0.11186    
    260     (1,66)                133.41       0.12999      2.0000       133.47       1178.5      -6.11347E-02
    261     (1,65)                133.41       0.13047      2.0000       133.49       48.384      -7.69918E-02
    262     (1,63)                133.40       0.13093      2.0000       133.46       1061.0      -6.39583E-02
    263     (1,60)                133.40       0.13148      2.0000       133.46       288.58      -6.09599E-02
    264     (1,36)                133.28       0.13236      2.0000       133.41       934.85      -0.12952    
    265     (1,35)                133.28       0.13345      2.0000       133.43       357.70      -0.14436    
    266     (1,33)                133.28       0.13439      2.0000       133.42       708.48      -0.13875    
    267     (1,30)                133.29       0.13560      2.0000       133.43       634.18      -0.14786    
    268     (1,8)                 133.29       0.13687      2.0000       133.47       589.25      -0.18743    
    269     (1,7)                 133.29       0.13836      2.0000       133.50       634.18      -0.20699    
    270     (1,5)                 133.29       0.13931      2.0000       133.62       69.120      -0.32937    
 -------------------------------------------------------------------------------------------------------------




  SFR BUDGET FOR ENTIRE MODEL AT END OF TIME STEP    1, STRESS PERIOD   2
  ------------------------------------------------------------------------------

     CUMULATIVE SFR      L**3       RATES FOR THIS TIME STEP      L**3/T
     ------------------                 ------------------------

           IN:                                      IN:
           ---                                      ---
                 GWF =      229984.5144                   GWF =        7320.4632
            RAINFALL =           0.0000              RAINFALL =           0.0000
         EVAPORATION =           0.0000           EVAPORATION =           0.0000
              RUNOFF =           0.0000                RUNOFF =           0.0000
          EXT-INFLOW =           0.0000            EXT-INFLOW =           0.0000
         EXT-OUTFLOW =           0.0000           EXT-OUTFLOW =           0.0000
             STORAGE =           0.0000               STORAGE =           0.0000

            TOTAL IN =      229984.5144              TOTAL IN =        7320.4632

          OUT:                                     OUT:
          ----                                     ----
                 GWF =       15406.3976                   GWF =         490.3891
            RAINFALL =           0.0000              RAINFALL =           0.0000
         EVAPORATION =           0.0000           EVAPORATION =           0.0000
              RUNOFF =           0.0000                RUNOFF =           0.0000
          EXT-INFLOW =           0.0000            EXT-INFLOW =           0.0000
         EXT-OUTFLOW =      214578.1168           EXT-OUTFLOW =        6830.0741
             STORAGE =           0.0000               STORAGE =           0.0000

           TOTAL OUT =      229984.5144             TOTAL OUT =        7320.4632

            IN - OUT =       2.9104E-11              IN - OUT =       9.0949E-13

 PERCENT DISCREPANCY =           0.00     PERCENT DISCREPANCY =           0.00




         TIME SUMMARY AT END OF TIME STEP    1 IN STRESS PERIOD    2
                    SECONDS     MINUTES      HOURS       DAYS        YEARS
                    -----------------------------------------------------------
   TIME STEP LENGTH 2.62800E+06  43800.      730.00      30.417     8.32763E-02
 STRESS PERIOD TIME 2.62800E+06  43800.      730.00      30.417     8.32763E-02
         TOTAL TIME 2.71440E+06  45240.      754.00      31.417     8.60141E-02


end timestep


start timestep kper="2" kstp="2" mode="normal"

 UBDSV1 SAVING           STO-SS ON UNIT   1019 AT TIME STEP      2, STRESS PERIOD      2
 UBDSV1 SAVING           STO-SY ON UNIT   1019 AT TIME STEP      2, STRESS PERIOD      2
 UBDSV1 SAVING     FLOW-JA-FACE ON UNIT   1019 AT TIME STEP      2, STRESS PERIOD      2
 UBDSV06 SAVING              GHB IN MODEL EXPERIMENTAL     PACKAGE EXPERIMENTAL    CONNECTED TO MODEL EXPERIMENTAL     PACKAGE GHB              ON UNIT   1019 AT TIME STEP      2, STRESS PERIOD      2
 UBDSV06 SAVING              RCH IN MODEL EXPERIMENTAL     PACKAGE EXPERIMENTAL    CONNECTED TO MODEL EXPERIMENTAL     PACKAGE RCH              ON UNIT   1019 AT TIME STEP      2, STRESS PERIOD      2
 UBDSV06 SAVING              SFR IN MODEL EXPERIMENTAL     PACKAGE EXPERIMENTAL    CONNECTED TO MODEL EXPERIMENTAL     PACKAGE SFR              ON UNIT   1019 AT TIME STEP      2, STRESS PERIOD      2
 UBDSV06 SAVING     FLOW-JA-FACE IN MODEL EXPERIMENTAL     PACKAGE SFR             CONNECTED TO MODEL EXPERIMENTAL     PACKAGE SFR              ON UNIT   1015 AT TIME STEP      2, STRESS PERIOD      2
 UBDSV06 SAVING              GWF IN MODEL EXPERIMENTAL     PACKAGE SFR             CONNECTED TO MODEL EXPERIMENTAL     PACKAGE EXPERIMENTAL     ON UNIT   1015 AT TIME STEP      2, STRESS PERIOD      2
 UBDSV06 SAVING         RAINFALL IN MODEL EXPERIMENTAL     PACKAGE SFR             CONNECTED TO MODEL EXPERIMENTAL     PACKAGE SFR              ON UNIT   1015 AT TIME STEP      2, STRESS PERIOD      2
 UBDSV06 SAVING      EVAPORATION IN MODEL EXPERIMENTAL     PACKAGE SFR             CONNECTED TO MODEL EXPERIMENTAL     PACKAGE SFR              ON UNIT   1015 AT TIME STEP      2, STRESS PERIOD      2
 UBDSV06 SAVING           RUNOFF IN MODEL EXPERIMENTAL     PACKAGE SFR             CONNECTED TO MODEL EXPERIMENTAL     PACKAGE SFR              ON UNIT   1015 AT TIME STEP      2, STRESS PERIOD      2
 UBDSV06 SAVING       EXT-INFLOW IN MODEL EXPERIMENTAL     PACKAGE SFR             CONNECTED TO MODEL EXPERIMENTAL     PACKAGE SFR              ON UNIT   1015 AT TIME STEP      2, STRESS PERIOD      2
 UBDSV06 SAVING      EXT-OUTFLOW IN MODEL EXPERIMENTAL     PACKAGE SFR             CONNECTED TO MODEL EXPERIMENTAL     PACKAGE SFR              ON UNIT   1015 AT TIME STEP      2, STRESS PERIOD      2
 UBDSV06 SAVING          STORAGE IN MODEL EXPERIMENTAL     PACKAGE SFR             CONNECTED TO MODEL EXPERIMENTAL     PACKAGE SFR              ON UNIT   1015 AT TIME STEP      2, STRESS PERIOD      2

 HEAD WILL BE SAVED ON UNIT 1020 AT END OF TIME STEP    2, STRESS PERIOD    2

end timestep


start timestep kper="2" kstp="3" mode="normal"

 UBDSV1 SAVING           STO-SS ON UNIT   1019 AT TIME STEP      3, STRESS PERIOD      2
 UBDSV1 SAVING           STO-SY ON UNIT   1019 AT TIME STEP      3, STRESS PERIOD      2
 UBDSV1 SAVING     FLOW-JA-FACE ON UNIT   1019 AT TIME STEP      3, STRESS PERIOD      2
 UBDSV06 SAVING              GHB IN MODEL EXPERIMENTAL     PACKAGE EXPERIMENTAL    CONNECTED TO MODEL EXPERIMENTAL     PACKAGE GHB              ON UNIT   1019 AT TIME STEP      3, STRESS PERIOD      2
 UBDSV06 SAVING              RCH IN MODEL EXPERIMENTAL     PACKAGE EXPERIMENTAL    CONNECTED TO MODEL EXPERIMENTAL     PACKAGE RCH              ON UNIT   1019 AT TIME STEP      3, STRESS PERIOD      2
 UBDSV06 SAVING              SFR IN MODEL EXPERIMENTAL     PACKAGE EXPERIMENTAL    CONNECTED TO MODEL EXPERIMENTAL     PACKAGE SFR              ON UNIT   1019 AT TIME STEP      3, STRESS PERIOD      2
 UBDSV06 SAVING     FLOW-JA-FACE IN MODEL EXPERIMENTAL     PACKAGE SFR             CONNECTED TO MODEL EXPERIMENTAL     PACKAGE SFR              ON UNIT   1015 AT TIME STEP      3, STRESS PERIOD      2
 UBDSV06 SAVING              GWF IN MODEL EXPERIMENTAL     PACKAGE SFR             CONNECTED TO MODEL EXPERIMENTAL     PACKAGE EXPERIMENTAL     ON UNIT   1015 AT TIME STEP      3, STRESS PERIOD      2
 UBDSV06 SAVING         RAINFALL IN MODEL EXPERIMENTAL     PACKAGE SFR             CONNECTED TO MODEL EXPERIMENTAL     PACKAGE SFR              ON UNIT   1015 AT TIME STEP      3, STRESS PERIOD      2
 UBDSV06 SAVING      EVAPORATION IN MODEL EXPERIMENTAL     PACKAGE SFR             CONNECTED TO MODEL EXPERIMENTAL     PACKAGE SFR              ON UNIT   1015 AT TIME STEP      3, STRESS PERIOD      2
 UBDSV06 SAVING           RUNOFF IN MODEL EXPERIMENTAL     PACKAGE SFR             CONNECTED TO MODEL EXPERIMENTAL     PACKAGE SFR              ON UNIT   1015 AT TIME STEP      3, STRESS PERIOD      2
 UBDSV06 SAVING       EXT-INFLOW IN MODEL EXPERIMENTAL     PACKAGE SFR             CONNECTED TO MODEL EXPERIMENTAL     PACKAGE SFR              ON UNIT   1015 AT TIME STEP      3, STRESS PERIOD      2
 UBDSV06 SAVING      EXT-OUTFLOW IN MODEL EXPERIMENTAL     PACKAGE SFR             CONNECTED TO MODEL EXPERIMENTAL     PACKAGE SFR              ON UNIT   1015 AT TIME STEP      3, STRESS PERIOD      2
 UBDSV06 SAVING          STORAGE IN MODEL EXPERIMENTAL     PACKAGE SFR             CONNECTED TO MODEL EXPERIMENTAL     PACKAGE SFR              ON UNIT   1015 AT TIME STEP      3, STRESS PERIOD      2

 HEAD WILL BE SAVED ON UNIT 1020 AT END OF TIME STEP    3, STRESS PERIOD    2

end timestep


start timestep kper="2" kstp="4" mode="normal"

 UBDSV1 SAVING           STO-SS ON UNIT   1019 AT TIME STEP      4, STRESS PERIOD      2
 UBDSV1 SAVING           STO-SY ON UNIT   1019 AT TIME STEP      4, STRESS PERIOD      2
 UBDSV1 SAVING     FLOW-JA-FACE ON UNIT   1019 AT TIME STEP      4, STRESS PERIOD      2
 UBDSV06 SAVING              GHB IN MODEL EXPERIMENTAL     PACKAGE EXPERIMENTAL    CONNECTED TO MODEL EXPERIMENTAL     PACKAGE GHB              ON UNIT   1019 AT TIME STEP      4, STRESS PERIOD      2
 UBDSV06 SAVING              RCH IN MODEL EXPERIMENTAL     PACKAGE EXPERIMENTAL    CONNECTED TO MODEL EXPERIMENTAL     PACKAGE RCH              ON UNIT   1019 AT TIME STEP      4, STRESS PERIOD      2
 UBDSV06 SAVING              SFR IN MODEL EXPERIMENTAL     PACKAGE EXPERIMENTAL    CONNECTED TO MODEL EXPERIMENTAL     PACKAGE SFR              ON UNIT   1019 AT TIME STEP      4, STRESS PERIOD      2
 UBDSV06 SAVING     FLOW-JA-FACE IN MODEL EXPERIMENTAL     PACKAGE SFR             CONNECTED TO MODEL EXPERIMENTAL     PACKAGE SFR              ON UNIT   1015 AT TIME STEP      4, STRESS PERIOD      2
 UBDSV06 SAVING              GWF IN MODEL EXPERIMENTAL     PACKAGE SFR             CONNECTED TO MODEL EXPERIMENTAL     PACKAGE EXPERIMENTAL     ON UNIT   1015 AT TIME STEP      4, STRESS PERIOD      2
 UBDSV06 SAVING         RAINFALL IN MODEL EXPERIMENTAL     PACKAGE SFR             CONNECTED TO MODEL EXPERIMENTAL     PACKAGE SFR              ON UNIT   1015 AT TIME STEP      4, STRESS PERIOD      2
 UBDSV06 SAVING      EVAPORATION IN MODEL EXPERIMENTAL     PACKAGE SFR             CONNECTED TO MODEL EXPERIMENTAL     PACKAGE SFR              ON UNIT   1015 AT TIME STEP      4, STRESS PERIOD      2
 UBDSV06 SAVING           RUNOFF IN MODEL EXPERIMENTAL     PACKAGE SFR             CONNECTED TO MODEL EXPERIMENTAL     PACKAGE SFR              ON UNIT   1015 AT TIME STEP      4, STRESS PERIOD      2
 UBDSV06 SAVING       EXT-INFLOW IN MODEL EXPERIMENTAL     PACKAGE SFR             CONNECTED TO MODEL EXPERIMENTAL     PACKAGE SFR              ON UNIT   1015 AT TIME STEP      4, STRESS PERIOD      2
 UBDSV06 SAVING      EXT-OUTFLOW IN MODEL EXPERIMENTAL     PACKAGE SFR             CONNECTED TO MODEL EXPERIMENTAL     PACKAGE SFR              ON UNIT   1015 AT TIME STEP      4, STRESS PERIOD      2
 UBDSV06 SAVING          STORAGE IN MODEL EXPERIMENTAL     PACKAGE SFR             CONNECTED TO MODEL EXPERIMENTAL     PACKAGE SFR              ON UNIT   1015 AT TIME STEP      4, STRESS PERIOD      2

 HEAD WILL BE SAVED ON UNIT 1020 AT END OF TIME STEP    4, STRESS PERIOD    2

end timestep


start timestep kper="2" kstp="5" mode="normal"

 UBDSV1 SAVING           STO-SS ON UNIT   1019 AT TIME STEP      5, STRESS PERIOD      2
 UBDSV1 SAVING           STO-SY ON UNIT   1019 AT TIME STEP      5, STRESS PERIOD      2
 UBDSV1 SAVING     FLOW-JA-FACE ON UNIT   1019 AT TIME STEP      5, STRESS PERIOD      2
 UBDSV06 SAVING              GHB IN MODEL EXPERIMENTAL     PACKAGE EXPERIMENTAL    CONNECTED TO MODEL EXPERIMENTAL     PACKAGE GHB              ON UNIT   1019 AT TIME STEP      5, STRESS PERIOD      2
 UBDSV06 SAVING              RCH IN MODEL EXPERIMENTAL     PACKAGE EXPERIMENTAL    CONNECTED TO MODEL EXPERIMENTAL     PACKAGE RCH              ON UNIT   1019 AT TIME STEP      5, STRESS PERIOD      2
 UBDSV06 SAVING              SFR IN MODEL EXPERIMENTAL     PACKAGE EXPERIMENTAL    CONNECTED TO MODEL EXPERIMENTAL     PACKAGE SFR              ON UNIT   1019 AT TIME STEP      5, STRESS PERIOD      2
 UBDSV06 SAVING     FLOW-JA-FACE IN MODEL EXPERIMENTAL     PACKAGE SFR             CONNECTED TO MODEL EXPERIMENTAL     PACKAGE SFR              ON UNIT   1015 AT TIME STEP      5, STRESS PERIOD      2
 UBDSV06 SAVING              GWF IN MODEL EXPERIMENTAL     PACKAGE SFR             CONNECTED TO MODEL EXPERIMENTAL     PACKAGE EXPERIMENTAL     ON UNIT   1015 AT TIME STEP      5, STRESS PERIOD      2
 UBDSV06 SAVING         RAINFALL IN MODEL EXPERIMENTAL     PACKAGE SFR             CONNECTED TO MODEL EXPERIMENTAL     PACKAGE SFR              ON UNIT   1015 AT TIME STEP      5, STRESS PERIOD      2
 UBDSV06 SAVING      EVAPORATION IN MODEL EXPERIMENTAL     PACKAGE SFR             CONNECTED TO MODEL EXPERIMENTAL     PACKAGE SFR              ON UNIT   1015 AT TIME STEP      5, STRESS PERIOD      2
 UBDSV06 SAVING           RUNOFF IN MODEL EXPERIMENTAL     PACKAGE SFR             CONNECTED TO MODEL EXPERIMENTAL     PACKAGE SFR              ON UNIT   1015 AT TIME STEP      5, STRESS PERIOD      2
 UBDSV06 SAVING       EXT-INFLOW IN MODEL EXPERIMENTAL     PACKAGE SFR             CONNECTED TO MODEL EXPERIMENTAL     PACKAGE SFR              ON UNIT   1015 AT TIME STEP      5, STRESS PERIOD      2
 UBDSV06 SAVING      EXT-OUTFLOW IN MODEL EXPERIMENTAL     PACKAGE SFR             CONNECTED TO MODEL EXPERIMENTAL     PACKAGE SFR              ON UNIT   1015 AT TIME STEP      5, STRESS PERIOD      2
 UBDSV06 SAVING          STORAGE IN MODEL EXPERIMENTAL     PACKAGE SFR             CONNECTED TO MODEL EXPERIMENTAL     PACKAGE SFR              ON UNIT   1015 AT TIME STEP      5, STRESS PERIOD      2

 HEAD WILL BE SAVED ON UNIT 1020 AT END OF TIME STEP    5, STRESS PERIOD    2

end timestep


start timestep kper="2" kstp="6" mode="normal"

 UBDSV1 SAVING           STO-SS ON UNIT   1019 AT TIME STEP      6, STRESS PERIOD      2
 UBDSV1 SAVING           STO-SY ON UNIT   1019 AT TIME STEP      6, STRESS PERIOD      2
 UBDSV1 SAVING     FLOW-JA-FACE ON UNIT   1019 AT TIME STEP      6, STRESS PERIOD      2
 UBDSV06 SAVING              GHB IN MODEL EXPERIMENTAL     PACKAGE EXPERIMENTAL    CONNECTED TO MODEL EXPERIMENTAL     PACKAGE GHB              ON UNIT   1019 AT TIME STEP      6, STRESS PERIOD      2
 UBDSV06 SAVING              RCH IN MODEL EXPERIMENTAL     PACKAGE EXPERIMENTAL    CONNECTED TO MODEL EXPERIMENTAL     PACKAGE RCH              ON UNIT   1019 AT TIME STEP      6, STRESS PERIOD      2
 UBDSV06 SAVING              SFR IN MODEL EXPERIMENTAL     PACKAGE EXPERIMENTAL    CONNECTED TO MODEL EXPERIMENTAL     PACKAGE SFR              ON UNIT   1019 AT TIME STEP      6, STRESS PERIOD      2
 UBDSV06 SAVING     FLOW-JA-FACE IN MODEL EXPERIMENTAL     PACKAGE SFR             CONNECTED TO MODEL EXPERIMENTAL     PACKAGE SFR              ON UNIT   1015 AT TIME STEP      6, STRESS PERIOD      2
 UBDSV06 SAVING              GWF IN MODEL EXPERIMENTAL     PACKAGE SFR             CONNECTED TO MODEL EXPERIMENTAL     PACKAGE EXPERIMENTAL     ON UNIT   1015 AT TIME STEP      6, STRESS PERIOD      2
 UBDSV06 SAVING         RAINFALL IN MODEL EXPERIMENTAL     PACKAGE SFR             CONNECTED TO MODEL EXPERIMENTAL     PACKAGE SFR              ON UNIT   1015 AT TIME STEP      6, STRESS PERIOD      2
 UBDSV06 SAVING      EVAPORATION IN MODEL EXPERIMENTAL     PACKAGE SFR             CONNECTED TO MODEL EXPERIMENTAL     PACKAGE SFR              ON UNIT   1015 AT TIME STEP      6, STRESS PERIOD      2
 UBDSV06 SAVING           RUNOFF IN MODEL EXPERIMENTAL     PACKAGE SFR             CONNECTED TO MODEL EXPERIMENTAL     PACKAGE SFR              ON UNIT   1015 AT TIME STEP      6, STRESS PERIOD      2
 UBDSV06 SAVING       EXT-INFLOW IN MODEL EXPERIMENTAL     PACKAGE SFR             CONNECTED TO MODEL EXPERIMENTAL     PACKAGE SFR              ON UNIT   1015 AT TIME STEP      6, STRESS PERIOD      2
 UBDSV06 SAVING      EXT-OUTFLOW IN MODEL EXPERIMENTAL     PACKAGE SFR             CONNECTED TO MODEL EXPERIMENTAL     PACKAGE SFR              ON UNIT   1015 AT TIME STEP      6, STRESS PERIOD      2
 UBDSV06 SAVING          STORAGE IN MODEL EXPERIMENTAL     PACKAGE SFR             CONNECTED TO MODEL EXPERIMENTAL     PACKAGE SFR              ON UNIT   1015 AT TIME STEP      6, STRESS PERIOD      2

 HEAD WILL BE SAVED ON UNIT 1020 AT END OF TIME STEP    6, STRESS PERIOD    2

end timestep


start timestep kper="2" kstp="7" mode="normal"

 UBDSV1 SAVING           STO-SS ON UNIT   1019 AT TIME STEP      7, STRESS PERIOD      2
 UBDSV1 SAVING           STO-SY ON UNIT   1019 AT TIME STEP      7, STRESS PERIOD      2
 UBDSV1 SAVING     FLOW-JA-FACE ON UNIT   1019 AT TIME STEP      7, STRESS PERIOD      2
 UBDSV06 SAVING              GHB IN MODEL EXPERIMENTAL     PACKAGE EXPERIMENTAL    CONNECTED TO MODEL EXPERIMENTAL     PACKAGE GHB              ON UNIT   1019 AT TIME STEP      7, STRESS PERIOD      2
 UBDSV06 SAVING              RCH IN MODEL EXPERIMENTAL     PACKAGE EXPERIMENTAL    CONNECTED TO MODEL EXPERIMENTAL     PACKAGE RCH              ON UNIT   1019 AT TIME STEP      7, STRESS PERIOD      2
 UBDSV06 SAVING              SFR IN MODEL EXPERIMENTAL     PACKAGE EXPERIMENTAL    CONNECTED TO MODEL EXPERIMENTAL     PACKAGE SFR              ON UNIT   1019 AT TIME STEP      7, STRESS PERIOD      2
 UBDSV06 SAVING     FLOW-JA-FACE IN MODEL EXPERIMENTAL     PACKAGE SFR             CONNECTED TO MODEL EXPERIMENTAL     PACKAGE SFR              ON UNIT   1015 AT TIME STEP      7, STRESS PERIOD      2
 UBDSV06 SAVING              GWF IN MODEL EXPERIMENTAL     PACKAGE SFR             CONNECTED TO MODEL EXPERIMENTAL     PACKAGE EXPERIMENTAL     ON UNIT   1015 AT TIME STEP      7, STRESS PERIOD      2
 UBDSV06 SAVING         RAINFALL IN MODEL EXPERIMENTAL     PACKAGE SFR             CONNECTED TO MODEL EXPERIMENTAL     PACKAGE SFR              ON UNIT   1015 AT TIME STEP      7, STRESS PERIOD      2
 UBDSV06 SAVING      EVAPORATION IN MODEL EXPERIMENTAL     PACKAGE SFR             CONNECTED TO MODEL EXPERIMENTAL     PACKAGE SFR              ON UNIT   1015 AT TIME STEP      7, STRESS PERIOD      2
 UBDSV06 SAVING           RUNOFF IN MODEL EXPERIMENTAL     PACKAGE SFR             CONNECTED TO MODEL EXPERIMENTAL     PACKAGE SFR              ON UNIT   1015 AT TIME STEP      7, STRESS PERIOD      2
 UBDSV06 SAVING       EXT-INFLOW IN MODEL EXPERIMENTAL     PACKAGE SFR             CONNECTED TO MODEL EXPERIMENTAL     PACKAGE SFR              ON UNIT   1015 AT TIME STEP      7, STRESS PERIOD      2
 UBDSV06 SAVING      EXT-OUTFLOW IN MODEL EXPERIMENTAL     PACKAGE SFR             CONNECTED TO MODEL EXPERIMENTAL     PACKAGE SFR              ON UNIT   1015 AT TIME STEP      7, STRESS PERIOD      2
 UBDSV06 SAVING          STORAGE IN MODEL EXPERIMENTAL     PACKAGE SFR             CONNECTED TO MODEL EXPERIMENTAL     PACKAGE SFR              ON UNIT   1015 AT TIME STEP      7, STRESS PERIOD      2

 HEAD WILL BE SAVED ON UNIT 1020 AT END OF TIME STEP    7, STRESS PERIOD    2

end timestep


start timestep kper="2" kstp="8" mode="normal"

 UBDSV1 SAVING           STO-SS ON UNIT   1019 AT TIME STEP      8, STRESS PERIOD      2
 UBDSV1 SAVING           STO-SY ON UNIT   1019 AT TIME STEP      8, STRESS PERIOD      2
 UBDSV1 SAVING     FLOW-JA-FACE ON UNIT   1019 AT TIME STEP      8, STRESS PERIOD      2
 UBDSV06 SAVING              GHB IN MODEL EXPERIMENTAL     PACKAGE EXPERIMENTAL    CONNECTED TO MODEL EXPERIMENTAL     PACKAGE GHB              ON UNIT   1019 AT TIME STEP      8, STRESS PERIOD      2
 UBDSV06 SAVING              RCH IN MODEL EXPERIMENTAL     PACKAGE EXPERIMENTAL    CONNECTED TO MODEL EXPERIMENTAL     PACKAGE RCH              ON UNIT   1019 AT TIME STEP      8, STRESS PERIOD      2
 UBDSV06 SAVING              SFR IN MODEL EXPERIMENTAL     PACKAGE EXPERIMENTAL    CONNECTED TO MODEL EXPERIMENTAL     PACKAGE SFR              ON UNIT   1019 AT TIME STEP      8, STRESS PERIOD      2
 UBDSV06 SAVING     FLOW-JA-FACE IN MODEL EXPERIMENTAL     PACKAGE SFR             CONNECTED TO MODEL EXPERIMENTAL     PACKAGE SFR              ON UNIT   1015 AT TIME STEP      8, STRESS PERIOD      2
 UBDSV06 SAVING              GWF IN MODEL EXPERIMENTAL     PACKAGE SFR             CONNECTED TO MODEL EXPERIMENTAL     PACKAGE EXPERIMENTAL     ON UNIT   1015 AT TIME STEP      8, STRESS PERIOD      2
 UBDSV06 SAVING         RAINFALL IN MODEL EXPERIMENTAL     PACKAGE SFR             CONNECTED TO MODEL EXPERIMENTAL     PACKAGE SFR              ON UNIT   1015 AT TIME STEP      8, STRESS PERIOD      2
 UBDSV06 SAVING      EVAPORATION IN MODEL EXPERIMENTAL     PACKAGE SFR             CONNECTED TO MODEL EXPERIMENTAL     PACKAGE SFR              ON UNIT   1015 AT TIME STEP      8, STRESS PERIOD      2
 UBDSV06 SAVING           RUNOFF IN MODEL EXPERIMENTAL     PACKAGE SFR             CONNECTED TO MODEL EXPERIMENTAL     PACKAGE SFR              ON UNIT   1015 AT TIME STEP      8, STRESS PERIOD      2
 UBDSV06 SAVING       EXT-INFLOW IN MODEL EXPERIMENTAL     PACKAGE SFR             CONNECTED TO MODEL EXPERIMENTAL     PACKAGE SFR              ON UNIT   1015 AT TIME STEP      8, STRESS PERIOD      2
 UBDSV06 SAVING      EXT-OUTFLOW IN MODEL EXPERIMENTAL     PACKAGE SFR             CONNECTED TO MODEL EXPERIMENTAL     PACKAGE SFR              ON UNIT   1015 AT TIME STEP      8, STRESS PERIOD      2
 UBDSV06 SAVING          STORAGE IN MODEL EXPERIMENTAL     PACKAGE SFR             CONNECTED TO MODEL EXPERIMENTAL     PACKAGE SFR              ON UNIT   1015 AT TIME STEP      8, STRESS PERIOD      2

 HEAD WILL BE SAVED ON UNIT 1020 AT END OF TIME STEP    8, STRESS PERIOD    2

end timestep


start timestep kper="2" kstp="9" mode="normal"

 UBDSV1 SAVING           STO-SS ON UNIT   1019 AT TIME STEP      9, STRESS PERIOD      2
 UBDSV1 SAVING           STO-SY ON UNIT   1019 AT TIME STEP      9, STRESS PERIOD      2
 UBDSV1 SAVING     FLOW-JA-FACE ON UNIT   1019 AT TIME STEP      9, STRESS PERIOD      2
 UBDSV06 SAVING              GHB IN MODEL EXPERIMENTAL     PACKAGE EXPERIMENTAL    CONNECTED TO MODEL EXPERIMENTAL     PACKAGE GHB              ON UNIT   1019 AT TIME STEP      9, STRESS PERIOD      2
 UBDSV06 SAVING              RCH IN MODEL EXPERIMENTAL     PACKAGE EXPERIMENTAL    CONNECTED TO MODEL EXPERIMENTAL     PACKAGE RCH              ON UNIT   1019 AT TIME STEP      9, STRESS PERIOD      2
 UBDSV06 SAVING              SFR IN MODEL EXPERIMENTAL     PACKAGE EXPERIMENTAL    CONNECTED TO MODEL EXPERIMENTAL     PACKAGE SFR              ON UNIT   1019 AT TIME STEP      9, STRESS PERIOD      2
 UBDSV06 SAVING     FLOW-JA-FACE IN MODEL EXPERIMENTAL     PACKAGE SFR             CONNECTED TO MODEL EXPERIMENTAL     PACKAGE SFR              ON UNIT   1015 AT TIME STEP      9, STRESS PERIOD      2
 UBDSV06 SAVING              GWF IN MODEL EXPERIMENTAL     PACKAGE SFR             CONNECTED TO MODEL EXPERIMENTAL     PACKAGE EXPERIMENTAL     ON UNIT   1015 AT TIME STEP      9, STRESS PERIOD      2
 UBDSV06 SAVING         RAINFALL IN MODEL EXPERIMENTAL     PACKAGE SFR             CONNECTED TO MODEL EXPERIMENTAL     PACKAGE SFR              ON UNIT   1015 AT TIME STEP      9, STRESS PERIOD      2
 UBDSV06 SAVING      EVAPORATION IN MODEL EXPERIMENTAL     PACKAGE SFR             CONNECTED TO MODEL EXPERIMENTAL     PACKAGE SFR              ON UNIT   1015 AT TIME STEP      9, STRESS PERIOD      2
 UBDSV06 SAVING           RUNOFF IN MODEL EXPERIMENTAL     PACKAGE SFR             CONNECTED TO MODEL EXPERIMENTAL     PACKAGE SFR              ON UNIT   1015 AT TIME STEP      9, STRESS PERIOD      2
 UBDSV06 SAVING       EXT-INFLOW IN MODEL EXPERIMENTAL     PACKAGE SFR             CONNECTED TO MODEL EXPERIMENTAL     PACKAGE SFR              ON UNIT   1015 AT TIME STEP      9, STRESS PERIOD      2
 UBDSV06 SAVING      EXT-OUTFLOW IN MODEL EXPERIMENTAL     PACKAGE SFR             CONNECTED TO MODEL EXPERIMENTAL     PACKAGE SFR              ON UNIT   1015 AT TIME STEP      9, STRESS PERIOD      2
 UBDSV06 SAVING          STORAGE IN MODEL EXPERIMENTAL     PACKAGE SFR             CONNECTED TO MODEL EXPERIMENTAL     PACKAGE SFR              ON UNIT   1015 AT TIME STEP      9, STRESS PERIOD      2

 HEAD WILL BE SAVED ON UNIT 1020 AT END OF TIME STEP    9, STRESS PERIOD    2

end timestep


start timestep kper="2" kstp="10" mode="normal"

 UBDSV1 SAVING           STO-SS ON UNIT   1019 AT TIME STEP     10, STRESS PERIOD      2
 UBDSV1 SAVING           STO-SY ON UNIT   1019 AT TIME STEP     10, STRESS PERIOD      2
 UBDSV1 SAVING     FLOW-JA-FACE ON UNIT   1019 AT TIME STEP     10, STRESS PERIOD      2
 UBDSV06 SAVING              GHB IN MODEL EXPERIMENTAL     PACKAGE EXPERIMENTAL    CONNECTED TO MODEL EXPERIMENTAL     PACKAGE GHB              ON UNIT   1019 AT TIME STEP     10, STRESS PERIOD      2
 UBDSV06 SAVING              RCH IN MODEL EXPERIMENTAL     PACKAGE EXPERIMENTAL    CONNECTED TO MODEL EXPERIMENTAL     PACKAGE RCH              ON UNIT   1019 AT TIME STEP     10, STRESS PERIOD      2
 UBDSV06 SAVING              SFR IN MODEL EXPERIMENTAL     PACKAGE EXPERIMENTAL    CONNECTED TO MODEL EXPERIMENTAL     PACKAGE SFR              ON UNIT   1019 AT TIME STEP     10, STRESS PERIOD      2
 UBDSV06 SAVING     FLOW-JA-FACE IN MODEL EXPERIMENTAL     PACKAGE SFR             CONNECTED TO MODEL EXPERIMENTAL     PACKAGE SFR              ON UNIT   1015 AT TIME STEP     10, STRESS PERIOD      2
 UBDSV06 SAVING              GWF IN MODEL EXPERIMENTAL     PACKAGE SFR             CONNECTED TO MODEL EXPERIMENTAL     PACKAGE EXPERIMENTAL     ON UNIT   1015 AT TIME STEP     10, STRESS PERIOD      2
 UBDSV06 SAVING         RAINFALL IN MODEL EXPERIMENTAL     PACKAGE SFR             CONNECTED TO MODEL EXPERIMENTAL     PACKAGE SFR              ON UNIT   1015 AT TIME STEP     10, STRESS PERIOD      2
 UBDSV06 SAVING      EVAPORATION IN MODEL EXPERIMENTAL     PACKAGE SFR             CONNECTED TO MODEL EXPERIMENTAL     PACKAGE SFR              ON UNIT   1015 AT TIME STEP     10, STRESS PERIOD      2
 UBDSV06 SAVING           RUNOFF IN MODEL EXPERIMENTAL     PACKAGE SFR             CONNECTED TO MODEL EXPERIMENTAL     PACKAGE SFR              ON UNIT   1015 AT TIME STEP     10, STRESS PERIOD      2
 UBDSV06 SAVING       EXT-INFLOW IN MODEL EXPERIMENTAL     PACKAGE SFR             CONNECTED TO MODEL EXPERIMENTAL     PACKAGE SFR              ON UNIT   1015 AT TIME STEP     10, STRESS PERIOD      2
 UBDSV06 SAVING      EXT-OUTFLOW IN MODEL EXPERIMENTAL     PACKAGE SFR             CONNECTED TO MODEL EXPERIMENTAL     PACKAGE SFR              ON UNIT   1015 AT TIME STEP     10, STRESS PERIOD      2
 UBDSV06 SAVING          STORAGE IN MODEL EXPERIMENTAL     PACKAGE SFR             CONNECTED TO MODEL EXPERIMENTAL     PACKAGE SFR              ON UNIT   1015 AT TIME STEP     10, STRESS PERIOD      2

 HEAD WILL BE SAVED ON UNIT 1020 AT END OF TIME STEP   10, STRESS PERIOD    2

end timestep


start timestep kper="2" kstp="11" mode="normal"

 UBDSV1 SAVING           STO-SS ON UNIT   1019 AT TIME STEP     11, STRESS PERIOD      2
 UBDSV1 SAVING           STO-SY ON UNIT   1019 AT TIME STEP     11, STRESS PERIOD      2
 UBDSV1 SAVING     FLOW-JA-FACE ON UNIT   1019 AT TIME STEP     11, STRESS PERIOD      2
 UBDSV06 SAVING              GHB IN MODEL EXPERIMENTAL     PACKAGE EXPERIMENTAL    CONNECTED TO MODEL EXPERIMENTAL     PACKAGE GHB              ON UNIT   1019 AT TIME STEP     11, STRESS PERIOD      2
 UBDSV06 SAVING              RCH IN MODEL EXPERIMENTAL     PACKAGE EXPERIMENTAL    CONNECTED TO MODEL EXPERIMENTAL     PACKAGE RCH              ON UNIT   1019 AT TIME STEP     11, STRESS PERIOD      2
 UBDSV06 SAVING              SFR IN MODEL EXPERIMENTAL     PACKAGE EXPERIMENTAL    CONNECTED TO MODEL EXPERIMENTAL     PACKAGE SFR              ON UNIT   1019 AT TIME STEP     11, STRESS PERIOD      2
 UBDSV06 SAVING     FLOW-JA-FACE IN MODEL EXPERIMENTAL     PACKAGE SFR             CONNECTED TO MODEL EXPERIMENTAL     PACKAGE SFR              ON UNIT   1015 AT TIME STEP     11, STRESS PERIOD      2
 UBDSV06 SAVING              GWF IN MODEL EXPERIMENTAL     PACKAGE SFR             CONNECTED TO MODEL EXPERIMENTAL     PACKAGE EXPERIMENTAL     ON UNIT   1015 AT TIME STEP     11, STRESS PERIOD      2
 UBDSV06 SAVING         RAINFALL IN MODEL EXPERIMENTAL     PACKAGE SFR             CONNECTED TO MODEL EXPERIMENTAL     PACKAGE SFR              ON UNIT   1015 AT TIME STEP     11, STRESS PERIOD      2
 UBDSV06 SAVING      EVAPORATION IN MODEL EXPERIMENTAL     PACKAGE SFR             CONNECTED TO MODEL EXPERIMENTAL     PACKAGE SFR              ON UNIT   1015 AT TIME STEP     11, STRESS PERIOD      2
 UBDSV06 SAVING           RUNOFF IN MODEL EXPERIMENTAL     PACKAGE SFR             CONNECTED TO MODEL EXPERIMENTAL     PACKAGE SFR              ON UNIT   1015 AT TIME STEP     11, STRESS PERIOD      2
 UBDSV06 SAVING       EXT-INFLOW IN MODEL EXPERIMENTAL     PACKAGE SFR             CONNECTED TO MODEL EXPERIMENTAL     PACKAGE SFR              ON UNIT   1015 AT TIME STEP     11, STRESS PERIOD      2
 UBDSV06 SAVING      EXT-OUTFLOW IN MODEL EXPERIMENTAL     PACKAGE SFR             CONNECTED TO MODEL EXPERIMENTAL     PACKAGE SFR              ON UNIT   1015 AT TIME STEP     11, STRESS PERIOD      2
 UBDSV06 SAVING          STORAGE IN MODEL EXPERIMENTAL     PACKAGE SFR             CONNECTED TO MODEL EXPERIMENTAL     PACKAGE SFR              ON UNIT   1015 AT TIME STEP     11, STRESS PERIOD      2

 HEAD WILL BE SAVED ON UNIT 1020 AT END OF TIME STEP   11, STRESS PERIOD    2

end timestep


start timestep kper="2" kstp="12" mode="normal"

 UBDSV1 SAVING           STO-SS ON UNIT   1019 AT TIME STEP     12, STRESS PERIOD      2
 UBDSV1 SAVING           STO-SY ON UNIT   1019 AT TIME STEP     12, STRESS PERIOD      2
 UBDSV1 SAVING     FLOW-JA-FACE ON UNIT   1019 AT TIME STEP     12, STRESS PERIOD      2
 UBDSV06 SAVING              GHB IN MODEL EXPERIMENTAL     PACKAGE EXPERIMENTAL    CONNECTED TO MODEL EXPERIMENTAL     PACKAGE GHB              ON UNIT   1019 AT TIME STEP     12, STRESS PERIOD      2
 UBDSV06 SAVING              RCH IN MODEL EXPERIMENTAL     PACKAGE EXPERIMENTAL    CONNECTED TO MODEL EXPERIMENTAL     PACKAGE RCH              ON UNIT   1019 AT TIME STEP     12, STRESS PERIOD      2
 UBDSV06 SAVING              SFR IN MODEL EXPERIMENTAL     PACKAGE EXPERIMENTAL    CONNECTED TO MODEL EXPERIMENTAL     PACKAGE SFR              ON UNIT   1019 AT TIME STEP     12, STRESS PERIOD      2
 UBDSV06 SAVING     FLOW-JA-FACE IN MODEL EXPERIMENTAL     PACKAGE SFR             CONNECTED TO MODEL EXPERIMENTAL     PACKAGE SFR              ON UNIT   1015 AT TIME STEP     12, STRESS PERIOD      2
 UBDSV06 SAVING              GWF IN MODEL EXPERIMENTAL     PACKAGE SFR             CONNECTED TO MODEL EXPERIMENTAL     PACKAGE EXPERIMENTAL     ON UNIT   1015 AT TIME STEP     12, STRESS PERIOD      2
 UBDSV06 SAVING         RAINFALL IN MODEL EXPERIMENTAL     PACKAGE SFR             CONNECTED TO MODEL EXPERIMENTAL     PACKAGE SFR              ON UNIT   1015 AT TIME STEP     12, STRESS PERIOD      2
 UBDSV06 SAVING      EVAPORATION IN MODEL EXPERIMENTAL     PACKAGE SFR             CONNECTED TO MODEL EXPERIMENTAL     PACKAGE SFR              ON UNIT   1015 AT TIME STEP     12, STRESS PERIOD      2
 UBDSV06 SAVING           RUNOFF IN MODEL EXPERIMENTAL     PACKAGE SFR             CONNECTED TO MODEL EXPERIMENTAL     PACKAGE SFR              ON UNIT   1015 AT TIME STEP     12, STRESS PERIOD      2
 UBDSV06 SAVING       EXT-INFLOW IN MODEL EXPERIMENTAL     PACKAGE SFR             CONNECTED TO MODEL EXPERIMENTAL     PACKAGE SFR              ON UNIT   1015 AT TIME STEP     12, STRESS PERIOD      2
 UBDSV06 SAVING      EXT-OUTFLOW IN MODEL EXPERIMENTAL     PACKAGE SFR             CONNECTED TO MODEL EXPERIMENTAL     PACKAGE SFR              ON UNIT   1015 AT TIME STEP     12, STRESS PERIOD      2
 UBDSV06 SAVING          STORAGE IN MODEL EXPERIMENTAL     PACKAGE SFR             CONNECTED TO MODEL EXPERIMENTAL     PACKAGE SFR              ON UNIT   1015 AT TIME STEP     12, STRESS PERIOD      2

 HEAD WILL BE SAVED ON UNIT 1020 AT END OF TIME STEP   12, STRESS PERIOD    2

end timestep


start timestep kper="2" kstp="13" mode="normal"

 UBDSV1 SAVING           STO-SS ON UNIT   1019 AT TIME STEP     13, STRESS PERIOD      2
 UBDSV1 SAVING           STO-SY ON UNIT   1019 AT TIME STEP     13, STRESS PERIOD      2
 UBDSV1 SAVING     FLOW-JA-FACE ON UNIT   1019 AT TIME STEP     13, STRESS PERIOD      2
 UBDSV06 SAVING              GHB IN MODEL EXPERIMENTAL     PACKAGE EXPERIMENTAL    CONNECTED TO MODEL EXPERIMENTAL     PACKAGE GHB              ON UNIT   1019 AT TIME STEP     13, STRESS PERIOD      2
 UBDSV06 SAVING              RCH IN MODEL EXPERIMENTAL     PACKAGE EXPERIMENTAL    CONNECTED TO MODEL EXPERIMENTAL     PACKAGE RCH              ON UNIT   1019 AT TIME STEP     13, STRESS PERIOD      2
 UBDSV06 SAVING              SFR IN MODEL EXPERIMENTAL     PACKAGE EXPERIMENTAL    CONNECTED TO MODEL EXPERIMENTAL     PACKAGE SFR              ON UNIT   1019 AT TIME STEP     13, STRESS PERIOD      2
 UBDSV06 SAVING     FLOW-JA-FACE IN MODEL EXPERIMENTAL     PACKAGE SFR             CONNECTED TO MODEL EXPERIMENTAL     PACKAGE SFR              ON UNIT   1015 AT TIME STEP     13, STRESS PERIOD      2
 UBDSV06 SAVING              GWF IN MODEL EXPERIMENTAL     PACKAGE SFR             CONNECTED TO MODEL EXPERIMENTAL     PACKAGE EXPERIMENTAL     ON UNIT   1015 AT TIME STEP     13, STRESS PERIOD      2
 UBDSV06 SAVING         RAINFALL IN MODEL EXPERIMENTAL     PACKAGE SFR             CONNECTED TO MODEL EXPERIMENTAL     PACKAGE SFR              ON UNIT   1015 AT TIME STEP     13, STRESS PERIOD      2
 UBDSV06 SAVING      EVAPORATION IN MODEL EXPERIMENTAL     PACKAGE SFR             CONNECTED TO MODEL EXPERIMENTAL     PACKAGE SFR              ON UNIT   1015 AT TIME STEP     13, STRESS PERIOD      2
 UBDSV06 SAVING           RUNOFF IN MODEL EXPERIMENTAL     PACKAGE SFR             CONNECTED TO MODEL EXPERIMENTAL     PACKAGE SFR              ON UNIT   1015 AT TIME STEP     13, STRESS PERIOD      2
 UBDSV06 SAVING       EXT-INFLOW IN MODEL EXPERIMENTAL     PACKAGE SFR             CONNECTED TO MODEL EXPERIMENTAL     PACKAGE SFR              ON UNIT   1015 AT TIME STEP     13, STRESS PERIOD      2
 UBDSV06 SAVING      EXT-OUTFLOW IN MODEL EXPERIMENTAL     PACKAGE SFR             CONNECTED TO MODEL EXPERIMENTAL     PACKAGE SFR              ON UNIT   1015 AT TIME STEP     13, STRESS PERIOD      2
 UBDSV06 SAVING          STORAGE IN MODEL EXPERIMENTAL     PACKAGE SFR             CONNECTED TO MODEL EXPERIMENTAL     PACKAGE SFR              ON UNIT   1015 AT TIME STEP     13, STRESS PERIOD      2

 HEAD WILL BE SAVED ON UNIT 1020 AT END OF TIME STEP   13, STRESS PERIOD    2

end timestep


start timestep kper="2" kstp="14" mode="normal"

 UBDSV1 SAVING           STO-SS ON UNIT   1019 AT TIME STEP     14, STRESS PERIOD      2
 UBDSV1 SAVING           STO-SY ON UNIT   1019 AT TIME STEP     14, STRESS PERIOD      2
 UBDSV1 SAVING     FLOW-JA-FACE ON UNIT   1019 AT TIME STEP     14, STRESS PERIOD      2
 UBDSV06 SAVING              GHB IN MODEL EXPERIMENTAL     PACKAGE EXPERIMENTAL    CONNECTED TO MODEL EXPERIMENTAL     PACKAGE GHB              ON UNIT   1019 AT TIME STEP     14, STRESS PERIOD      2
 UBDSV06 SAVING              RCH IN MODEL EXPERIMENTAL     PACKAGE EXPERIMENTAL    CONNECTED TO MODEL EXPERIMENTAL     PACKAGE RCH              ON UNIT   1019 AT TIME STEP     14, STRESS PERIOD      2
 UBDSV06 SAVING              SFR IN MODEL EXPERIMENTAL     PACKAGE EXPERIMENTAL    CONNECTED TO MODEL EXPERIMENTAL     PACKAGE SFR              ON UNIT   1019 AT TIME STEP     14, STRESS PERIOD      2
 UBDSV06 SAVING     FLOW-JA-FACE IN MODEL EXPERIMENTAL     PACKAGE SFR             CONNECTED TO MODEL EXPERIMENTAL     PACKAGE SFR              ON UNIT   1015 AT TIME STEP     14, STRESS PERIOD      2
 UBDSV06 SAVING              GWF IN MODEL EXPERIMENTAL     PACKAGE SFR             CONNECTED TO MODEL EXPERIMENTAL     PACKAGE EXPERIMENTAL     ON UNIT   1015 AT TIME STEP     14, STRESS PERIOD      2
 UBDSV06 SAVING         RAINFALL IN MODEL EXPERIMENTAL     PACKAGE SFR             CONNECTED TO MODEL EXPERIMENTAL     PACKAGE SFR              ON UNIT   1015 AT TIME STEP     14, STRESS PERIOD      2
 UBDSV06 SAVING      EVAPORATION IN MODEL EXPERIMENTAL     PACKAGE SFR             CONNECTED TO MODEL EXPERIMENTAL     PACKAGE SFR              ON UNIT   1015 AT TIME STEP     14, STRESS PERIOD      2
 UBDSV06 SAVING           RUNOFF IN MODEL EXPERIMENTAL     PACKAGE SFR             CONNECTED TO MODEL EXPERIMENTAL     PACKAGE SFR              ON UNIT   1015 AT TIME STEP     14, STRESS PERIOD      2
 UBDSV06 SAVING       EXT-INFLOW IN MODEL EXPERIMENTAL     PACKAGE SFR             CONNECTED TO MODEL EXPERIMENTAL     PACKAGE SFR              ON UNIT   1015 AT TIME STEP     14, STRESS PERIOD      2
 UBDSV06 SAVING      EXT-OUTFLOW IN MODEL EXPERIMENTAL     PACKAGE SFR             CONNECTED TO MODEL EXPERIMENTAL     PACKAGE SFR              ON UNIT   1015 AT TIME STEP     14, STRESS PERIOD      2
 UBDSV06 SAVING          STORAGE IN MODEL EXPERIMENTAL     PACKAGE SFR             CONNECTED TO MODEL EXPERIMENTAL     PACKAGE SFR              ON UNIT   1015 AT TIME STEP     14, STRESS PERIOD      2

 HEAD WILL BE SAVED ON UNIT 1020 AT END OF TIME STEP   14, STRESS PERIOD    2

end timestep


start timestep kper="2" kstp="15" mode="normal"

 UBDSV1 SAVING           STO-SS ON UNIT   1019 AT TIME STEP     15, STRESS PERIOD      2
 UBDSV1 SAVING           STO-SY ON UNIT   1019 AT TIME STEP     15, STRESS PERIOD      2
 UBDSV1 SAVING     FLOW-JA-FACE ON UNIT   1019 AT TIME STEP     15, STRESS PERIOD      2
 UBDSV06 SAVING              GHB IN MODEL EXPERIMENTAL     PACKAGE EXPERIMENTAL    CONNECTED TO MODEL EXPERIMENTAL     PACKAGE GHB              ON UNIT   1019 AT TIME STEP     15, STRESS PERIOD      2
 UBDSV06 SAVING              RCH IN MODEL EXPERIMENTAL     PACKAGE EXPERIMENTAL    CONNECTED TO MODEL EXPERIMENTAL     PACKAGE RCH              ON UNIT   1019 AT TIME STEP     15, STRESS PERIOD      2
 UBDSV06 SAVING              SFR IN MODEL EXPERIMENTAL     PACKAGE EXPERIMENTAL    CONNECTED TO MODEL EXPERIMENTAL     PACKAGE SFR              ON UNIT   1019 AT TIME STEP     15, STRESS PERIOD      2
 UBDSV06 SAVING     FLOW-JA-FACE IN MODEL EXPERIMENTAL     PACKAGE SFR             CONNECTED TO MODEL EXPERIMENTAL     PACKAGE SFR              ON UNIT   1015 AT TIME STEP     15, STRESS PERIOD      2
 UBDSV06 SAVING              GWF IN MODEL EXPERIMENTAL     PACKAGE SFR             CONNECTED TO MODEL EXPERIMENTAL     PACKAGE EXPERIMENTAL     ON UNIT   1015 AT TIME STEP     15, STRESS PERIOD      2
 UBDSV06 SAVING         RAINFALL IN MODEL EXPERIMENTAL     PACKAGE SFR             CONNECTED TO MODEL EXPERIMENTAL     PACKAGE SFR              ON UNIT   1015 AT TIME STEP     15, STRESS PERIOD      2
 UBDSV06 SAVING      EVAPORATION IN MODEL EXPERIMENTAL     PACKAGE SFR             CONNECTED TO MODEL EXPERIMENTAL     PACKAGE SFR              ON UNIT   1015 AT TIME STEP     15, STRESS PERIOD      2
 UBDSV06 SAVING           RUNOFF IN MODEL EXPERIMENTAL     PACKAGE SFR             CONNECTED TO MODEL EXPERIMENTAL     PACKAGE SFR              ON UNIT   1015 AT TIME STEP     15, STRESS PERIOD      2
 UBDSV06 SAVING       EXT-INFLOW IN MODEL EXPERIMENTAL     PACKAGE SFR             CONNECTED TO MODEL EXPERIMENTAL     PACKAGE SFR              ON UNIT   1015 AT TIME STEP     15, STRESS PERIOD      2
 UBDSV06 SAVING      EXT-OUTFLOW IN MODEL EXPERIMENTAL     PACKAGE SFR             CONNECTED TO MODEL EXPERIMENTAL     PACKAGE SFR              ON UNIT   1015 AT TIME STEP     15, STRESS PERIOD      2
 UBDSV06 SAVING          STORAGE IN MODEL EXPERIMENTAL     PACKAGE SFR             CONNECTED TO MODEL EXPERIMENTAL     PACKAGE SFR              ON UNIT   1015 AT TIME STEP     15, STRESS PERIOD      2

 HEAD WILL BE SAVED ON UNIT 1020 AT END OF TIME STEP   15, STRESS PERIOD    2

end timestep


start timestep kper="2" kstp="16" mode="normal"

 UBDSV1 SAVING           STO-SS ON UNIT   1019 AT TIME STEP     16, STRESS PERIOD      2
 UBDSV1 SAVING           STO-SY ON UNIT   1019 AT TIME STEP     16, STRESS PERIOD      2
 UBDSV1 SAVING     FLOW-JA-FACE ON UNIT   1019 AT TIME STEP     16, STRESS PERIOD      2
 UBDSV06 SAVING              GHB IN MODEL EXPERIMENTAL     PACKAGE EXPERIMENTAL    CONNECTED TO MODEL EXPERIMENTAL     PACKAGE GHB              ON UNIT   1019 AT TIME STEP     16, STRESS PERIOD      2
 UBDSV06 SAVING              RCH IN MODEL EXPERIMENTAL     PACKAGE EXPERIMENTAL    CONNECTED TO MODEL EXPERIMENTAL     PACKAGE RCH              ON UNIT   1019 AT TIME STEP     16, STRESS PERIOD      2
 UBDSV06 SAVING              SFR IN MODEL EXPERIMENTAL     PACKAGE EXPERIMENTAL    CONNECTED TO MODEL EXPERIMENTAL     PACKAGE SFR              ON UNIT   1019 AT TIME STEP     16, STRESS PERIOD      2
 UBDSV06 SAVING     FLOW-JA-FACE IN MODEL EXPERIMENTAL     PACKAGE SFR             CONNECTED TO MODEL EXPERIMENTAL     PACKAGE SFR              ON UNIT   1015 AT TIME STEP     16, STRESS PERIOD      2
 UBDSV06 SAVING              GWF IN MODEL EXPERIMENTAL     PACKAGE SFR             CONNECTED TO MODEL EXPERIMENTAL     PACKAGE EXPERIMENTAL     ON UNIT   1015 AT TIME STEP     16, STRESS PERIOD      2
 UBDSV06 SAVING         RAINFALL IN MODEL EXPERIMENTAL     PACKAGE SFR             CONNECTED TO MODEL EXPERIMENTAL     PACKAGE SFR              ON UNIT   1015 AT TIME STEP     16, STRESS PERIOD      2
 UBDSV06 SAVING      EVAPORATION IN MODEL EXPERIMENTAL     PACKAGE SFR             CONNECTED TO MODEL EXPERIMENTAL     PACKAGE SFR              ON UNIT   1015 AT TIME STEP     16, STRESS PERIOD      2
 UBDSV06 SAVING           RUNOFF IN MODEL EXPERIMENTAL     PACKAGE SFR             CONNECTED TO MODEL EXPERIMENTAL     PACKAGE SFR              ON UNIT   1015 AT TIME STEP     16, STRESS PERIOD      2
 UBDSV06 SAVING       EXT-INFLOW IN MODEL EXPERIMENTAL     PACKAGE SFR             CONNECTED TO MODEL EXPERIMENTAL     PACKAGE SFR              ON UNIT   1015 AT TIME STEP     16, STRESS PERIOD      2
 UBDSV06 SAVING      EXT-OUTFLOW IN MODEL EXPERIMENTAL     PACKAGE SFR             CONNECTED TO MODEL EXPERIMENTAL     PACKAGE SFR              ON UNIT   1015 AT TIME STEP     16, STRESS PERIOD      2
 UBDSV06 SAVING          STORAGE IN MODEL EXPERIMENTAL     PACKAGE SFR             CONNECTED TO MODEL EXPERIMENTAL     PACKAGE SFR              ON UNIT   1015 AT TIME STEP     16, STRESS PERIOD      2

 HEAD WILL BE SAVED ON UNIT 1020 AT END OF TIME STEP   16, STRESS PERIOD    2

end timestep


start timestep kper="2" kstp="17" mode="normal"

 UBDSV1 SAVING           STO-SS ON UNIT   1019 AT TIME STEP     17, STRESS PERIOD      2
 UBDSV1 SAVING           STO-SY ON UNIT   1019 AT TIME STEP     17, STRESS PERIOD      2
 UBDSV1 SAVING     FLOW-JA-FACE ON UNIT   1019 AT TIME STEP     17, STRESS PERIOD      2
 UBDSV06 SAVING              GHB IN MODEL EXPERIMENTAL     PACKAGE EXPERIMENTAL    CONNECTED TO MODEL EXPERIMENTAL     PACKAGE GHB              ON UNIT   1019 AT TIME STEP     17, STRESS PERIOD      2
 UBDSV06 SAVING              RCH IN MODEL EXPERIMENTAL     PACKAGE EXPERIMENTAL    CONNECTED TO MODEL EXPERIMENTAL     PACKAGE RCH              ON UNIT   1019 AT TIME STEP     17, STRESS PERIOD      2
 UBDSV06 SAVING              SFR IN MODEL EXPERIMENTAL     PACKAGE EXPERIMENTAL    CONNECTED TO MODEL EXPERIMENTAL     PACKAGE SFR              ON UNIT   1019 AT TIME STEP     17, STRESS PERIOD      2
 UBDSV06 SAVING     FLOW-JA-FACE IN MODEL EXPERIMENTAL     PACKAGE SFR             CONNECTED TO MODEL EXPERIMENTAL     PACKAGE SFR              ON UNIT   1015 AT TIME STEP     17, STRESS PERIOD      2
 UBDSV06 SAVING              GWF IN MODEL EXPERIMENTAL     PACKAGE SFR             CONNECTED TO MODEL EXPERIMENTAL     PACKAGE EXPERIMENTAL     ON UNIT   1015 AT TIME STEP     17, STRESS PERIOD      2
 UBDSV06 SAVING         RAINFALL IN MODEL EXPERIMENTAL     PACKAGE SFR             CONNECTED TO MODEL EXPERIMENTAL     PACKAGE SFR              ON UNIT   1015 AT TIME STEP     17, STRESS PERIOD      2
 UBDSV06 SAVING      EVAPORATION IN MODEL EXPERIMENTAL     PACKAGE SFR             CONNECTED TO MODEL EXPERIMENTAL     PACKAGE SFR              ON UNIT   1015 AT TIME STEP     17, STRESS PERIOD      2
 UBDSV06 SAVING           RUNOFF IN MODEL EXPERIMENTAL     PACKAGE SFR             CONNECTED TO MODEL EXPERIMENTAL     PACKAGE SFR              ON UNIT   1015 AT TIME STEP     17, STRESS PERIOD      2
 UBDSV06 SAVING       EXT-INFLOW IN MODEL EXPERIMENTAL     PACKAGE SFR             CONNECTED TO MODEL EXPERIMENTAL     PACKAGE SFR              ON UNIT   1015 AT TIME STEP     17, STRESS PERIOD      2
 UBDSV06 SAVING      EXT-OUTFLOW IN MODEL EXPERIMENTAL     PACKAGE SFR             CONNECTED TO MODEL EXPERIMENTAL     PACKAGE SFR              ON UNIT   1015 AT TIME STEP     17, STRESS PERIOD      2
 UBDSV06 SAVING          STORAGE IN MODEL EXPERIMENTAL     PACKAGE SFR             CONNECTED TO MODEL EXPERIMENTAL     PACKAGE SFR              ON UNIT   1015 AT TIME STEP     17, STRESS PERIOD      2

 HEAD WILL BE SAVED ON UNIT 1020 AT END OF TIME STEP   17, STRESS PERIOD    2

end timestep


start timestep kper="2" kstp="18" mode="normal"

 UBDSV1 SAVING           STO-SS ON UNIT   1019 AT TIME STEP     18, STRESS PERIOD      2
 UBDSV1 SAVING           STO-SY ON UNIT   1019 AT TIME STEP     18, STRESS PERIOD      2
 UBDSV1 SAVING     FLOW-JA-FACE ON UNIT   1019 AT TIME STEP     18, STRESS PERIOD      2
 UBDSV06 SAVING              GHB IN MODEL EXPERIMENTAL     PACKAGE EXPERIMENTAL    CONNECTED TO MODEL EXPERIMENTAL     PACKAGE GHB              ON UNIT   1019 AT TIME STEP     18, STRESS PERIOD      2
 UBDSV06 SAVING              RCH IN MODEL EXPERIMENTAL     PACKAGE EXPERIMENTAL    CONNECTED TO MODEL EXPERIMENTAL     PACKAGE RCH              ON UNIT   1019 AT TIME STEP     18, STRESS PERIOD      2
 UBDSV06 SAVING              SFR IN MODEL EXPERIMENTAL     PACKAGE EXPERIMENTAL    CONNECTED TO MODEL EXPERIMENTAL     PACKAGE SFR              ON UNIT   1019 AT TIME STEP     18, STRESS PERIOD      2
 UBDSV06 SAVING     FLOW-JA-FACE IN MODEL EXPERIMENTAL     PACKAGE SFR             CONNECTED TO MODEL EXPERIMENTAL     PACKAGE SFR              ON UNIT   1015 AT TIME STEP     18, STRESS PERIOD      2
 UBDSV06 SAVING              GWF IN MODEL EXPERIMENTAL     PACKAGE SFR             CONNECTED TO MODEL EXPERIMENTAL     PACKAGE EXPERIMENTAL     ON UNIT   1015 AT TIME STEP     18, STRESS PERIOD      2
 UBDSV06 SAVING         RAINFALL IN MODEL EXPERIMENTAL     PACKAGE SFR             CONNECTED TO MODEL EXPERIMENTAL     PACKAGE SFR              ON UNIT   1015 AT TIME STEP     18, STRESS PERIOD      2
 UBDSV06 SAVING      EVAPORATION IN MODEL EXPERIMENTAL     PACKAGE SFR             CONNECTED TO MODEL EXPERIMENTAL     PACKAGE SFR              ON UNIT   1015 AT TIME STEP     18, STRESS PERIOD      2
 UBDSV06 SAVING           RUNOFF IN MODEL EXPERIMENTAL     PACKAGE SFR             CONNECTED TO MODEL EXPERIMENTAL     PACKAGE SFR              ON UNIT   1015 AT TIME STEP     18, STRESS PERIOD      2
 UBDSV06 SAVING       EXT-INFLOW IN MODEL EXPERIMENTAL     PACKAGE SFR             CONNECTED TO MODEL EXPERIMENTAL     PACKAGE SFR              ON UNIT   1015 AT TIME STEP     18, STRESS PERIOD      2
 UBDSV06 SAVING      EXT-OUTFLOW IN MODEL EXPERIMENTAL     PACKAGE SFR             CONNECTED TO MODEL EXPERIMENTAL     PACKAGE SFR              ON UNIT   1015 AT TIME STEP     18, STRESS PERIOD      2
 UBDSV06 SAVING          STORAGE IN MODEL EXPERIMENTAL     PACKAGE SFR             CONNECTED TO MODEL EXPERIMENTAL     PACKAGE SFR              ON UNIT   1015 AT TIME STEP     18, STRESS PERIOD      2

 HEAD WILL BE SAVED ON UNIT 1020 AT END OF TIME STEP   18, STRESS PERIOD    2

end timestep


start timestep kper="2" kstp="19" mode="normal"

 UBDSV1 SAVING           STO-SS ON UNIT   1019 AT TIME STEP     19, STRESS PERIOD      2
 UBDSV1 SAVING           STO-SY ON UNIT   1019 AT TIME STEP     19, STRESS PERIOD      2
 UBDSV1 SAVING     FLOW-JA-FACE ON UNIT   1019 AT TIME STEP     19, STRESS PERIOD      2
 UBDSV06 SAVING              GHB IN MODEL EXPERIMENTAL     PACKAGE EXPERIMENTAL    CONNECTED TO MODEL EXPERIMENTAL     PACKAGE GHB              ON UNIT   1019 AT TIME STEP     19, STRESS PERIOD      2
 UBDSV06 SAVING              RCH IN MODEL EXPERIMENTAL     PACKAGE EXPERIMENTAL    CONNECTED TO MODEL EXPERIMENTAL     PACKAGE RCH              ON UNIT   1019 AT TIME STEP     19, STRESS PERIOD      2
 UBDSV06 SAVING              SFR IN MODEL EXPERIMENTAL     PACKAGE EXPERIMENTAL    CONNECTED TO MODEL EXPERIMENTAL     PACKAGE SFR              ON UNIT   1019 AT TIME STEP     19, STRESS PERIOD      2
 UBDSV06 SAVING     FLOW-JA-FACE IN MODEL EXPERIMENTAL     PACKAGE SFR             CONNECTED TO MODEL EXPERIMENTAL     PACKAGE SFR              ON UNIT   1015 AT TIME STEP     19, STRESS PERIOD      2
 UBDSV06 SAVING              GWF IN MODEL EXPERIMENTAL     PACKAGE SFR             CONNECTED TO MODEL EXPERIMENTAL     PACKAGE EXPERIMENTAL     ON UNIT   1015 AT TIME STEP     19, STRESS PERIOD      2
 UBDSV06 SAVING         RAINFALL IN MODEL EXPERIMENTAL     PACKAGE SFR             CONNECTED TO MODEL EXPERIMENTAL     PACKAGE SFR              ON UNIT   1015 AT TIME STEP     19, STRESS PERIOD      2
 UBDSV06 SAVING      EVAPORATION IN MODEL EXPERIMENTAL     PACKAGE SFR             CONNECTED TO MODEL EXPERIMENTAL     PACKAGE SFR              ON UNIT   1015 AT TIME STEP     19, STRESS PERIOD      2
 UBDSV06 SAVING           RUNOFF IN MODEL EXPERIMENTAL     PACKAGE SFR             CONNECTED TO MODEL EXPERIMENTAL     PACKAGE SFR              ON UNIT   1015 AT TIME STEP     19, STRESS PERIOD      2
 UBDSV06 SAVING       EXT-INFLOW IN MODEL EXPERIMENTAL     PACKAGE SFR             CONNECTED TO MODEL EXPERIMENTAL     PACKAGE SFR              ON UNIT   1015 AT TIME STEP     19, STRESS PERIOD      2
 UBDSV06 SAVING      EXT-OUTFLOW IN MODEL EXPERIMENTAL     PACKAGE SFR             CONNECTED TO MODEL EXPERIMENTAL     PACKAGE SFR              ON UNIT   1015 AT TIME STEP     19, STRESS PERIOD      2
 UBDSV06 SAVING          STORAGE IN MODEL EXPERIMENTAL     PACKAGE SFR             CONNECTED TO MODEL EXPERIMENTAL     PACKAGE SFR              ON UNIT   1015 AT TIME STEP     19, STRESS PERIOD      2

 HEAD WILL BE SAVED ON UNIT 1020 AT END OF TIME STEP   19, STRESS PERIOD    2

end timestep


start timestep kper="2" kstp="20" mode="normal"

 UBDSV1 SAVING           STO-SS ON UNIT   1019 AT TIME STEP     20, STRESS PERIOD      2
 UBDSV1 SAVING           STO-SY ON UNIT   1019 AT TIME STEP     20, STRESS PERIOD      2
 UBDSV1 SAVING     FLOW-JA-FACE ON UNIT   1019 AT TIME STEP     20, STRESS PERIOD      2
 UBDSV06 SAVING              GHB IN MODEL EXPERIMENTAL     PACKAGE EXPERIMENTAL    CONNECTED TO MODEL EXPERIMENTAL     PACKAGE GHB              ON UNIT   1019 AT TIME STEP     20, STRESS PERIOD      2
 UBDSV06 SAVING              RCH IN MODEL EXPERIMENTAL     PACKAGE EXPERIMENTAL    CONNECTED TO MODEL EXPERIMENTAL     PACKAGE RCH              ON UNIT   1019 AT TIME STEP     20, STRESS PERIOD      2
 UBDSV06 SAVING              SFR IN MODEL EXPERIMENTAL     PACKAGE EXPERIMENTAL    CONNECTED TO MODEL EXPERIMENTAL     PACKAGE SFR              ON UNIT   1019 AT TIME STEP     20, STRESS PERIOD      2
 UBDSV06 SAVING     FLOW-JA-FACE IN MODEL EXPERIMENTAL     PACKAGE SFR             CONNECTED TO MODEL EXPERIMENTAL     PACKAGE SFR              ON UNIT   1015 AT TIME STEP     20, STRESS PERIOD      2
 UBDSV06 SAVING              GWF IN MODEL EXPERIMENTAL     PACKAGE SFR             CONNECTED TO MODEL EXPERIMENTAL     PACKAGE EXPERIMENTAL     ON UNIT   1015 AT TIME STEP     20, STRESS PERIOD      2
 UBDSV06 SAVING         RAINFALL IN MODEL EXPERIMENTAL     PACKAGE SFR             CONNECTED TO MODEL EXPERIMENTAL     PACKAGE SFR              ON UNIT   1015 AT TIME STEP     20, STRESS PERIOD      2
 UBDSV06 SAVING      EVAPORATION IN MODEL EXPERIMENTAL     PACKAGE SFR             CONNECTED TO MODEL EXPERIMENTAL     PACKAGE SFR              ON UNIT   1015 AT TIME STEP     20, STRESS PERIOD      2
 UBDSV06 SAVING           RUNOFF IN MODEL EXPERIMENTAL     PACKAGE SFR             CONNECTED TO MODEL EXPERIMENTAL     PACKAGE SFR              ON UNIT   1015 AT TIME STEP     20, STRESS PERIOD      2
 UBDSV06 SAVING       EXT-INFLOW IN MODEL EXPERIMENTAL     PACKAGE SFR             CONNECTED TO MODEL EXPERIMENTAL     PACKAGE SFR              ON UNIT   1015 AT TIME STEP     20, STRESS PERIOD      2
 UBDSV06 SAVING      EXT-OUTFLOW IN MODEL EXPERIMENTAL     PACKAGE SFR             CONNECTED TO MODEL EXPERIMENTAL     PACKAGE SFR              ON UNIT   1015 AT TIME STEP     20, STRESS PERIOD      2
 UBDSV06 SAVING          STORAGE IN MODEL EXPERIMENTAL     PACKAGE SFR             CONNECTED TO MODEL EXPERIMENTAL     PACKAGE SFR              ON UNIT   1015 AT TIME STEP     20, STRESS PERIOD      2

 HEAD WILL BE SAVED ON UNIT 1020 AT END OF TIME STEP   20, STRESS PERIOD    2

end timestep


start timestep kper="2" kstp="21" mode="normal"

 UBDSV1 SAVING           STO-SS ON UNIT   1019 AT TIME STEP     21, STRESS PERIOD      2
 UBDSV1 SAVING           STO-SY ON UNIT   1019 AT TIME STEP     21, STRESS PERIOD      2
 UBDSV1 SAVING     FLOW-JA-FACE ON UNIT   1019 AT TIME STEP     21, STRESS PERIOD      2
 UBDSV06 SAVING              GHB IN MODEL EXPERIMENTAL     PACKAGE EXPERIMENTAL    CONNECTED TO MODEL EXPERIMENTAL     PACKAGE GHB              ON UNIT   1019 AT TIME STEP     21, STRESS PERIOD      2
 UBDSV06 SAVING              RCH IN MODEL EXPERIMENTAL     PACKAGE EXPERIMENTAL    CONNECTED TO MODEL EXPERIMENTAL     PACKAGE RCH              ON UNIT   1019 AT TIME STEP     21, STRESS PERIOD      2
 UBDSV06 SAVING              SFR IN MODEL EXPERIMENTAL     PACKAGE EXPERIMENTAL    CONNECTED TO MODEL EXPERIMENTAL     PACKAGE SFR              ON UNIT   1019 AT TIME STEP     21, STRESS PERIOD      2
 UBDSV06 SAVING     FLOW-JA-FACE IN MODEL EXPERIMENTAL     PACKAGE SFR             CONNECTED TO MODEL EXPERIMENTAL     PACKAGE SFR              ON UNIT   1015 AT TIME STEP     21, STRESS PERIOD      2
 UBDSV06 SAVING              GWF IN MODEL EXPERIMENTAL     PACKAGE SFR             CONNECTED TO MODEL EXPERIMENTAL     PACKAGE EXPERIMENTAL     ON UNIT   1015 AT TIME STEP     21, STRESS PERIOD      2
 UBDSV06 SAVING         RAINFALL IN MODEL EXPERIMENTAL     PACKAGE SFR             CONNECTED TO MODEL EXPERIMENTAL     PACKAGE SFR              ON UNIT   1015 AT TIME STEP     21, STRESS PERIOD      2
 UBDSV06 SAVING      EVAPORATION IN MODEL EXPERIMENTAL     PACKAGE SFR             CONNECTED TO MODEL EXPERIMENTAL     PACKAGE SFR              ON UNIT   1015 AT TIME STEP     21, STRESS PERIOD      2
 UBDSV06 SAVING           RUNOFF IN MODEL EXPERIMENTAL     PACKAGE SFR             CONNECTED TO MODEL EXPERIMENTAL     PACKAGE SFR              ON UNIT   1015 AT TIME STEP     21, STRESS PERIOD      2
 UBDSV06 SAVING       EXT-INFLOW IN MODEL EXPERIMENTAL     PACKAGE SFR             CONNECTED TO MODEL EXPERIMENTAL     PACKAGE SFR              ON UNIT   1015 AT TIME STEP     21, STRESS PERIOD      2
 UBDSV06 SAVING      EXT-OUTFLOW IN MODEL EXPERIMENTAL     PACKAGE SFR             CONNECTED TO MODEL EXPERIMENTAL     PACKAGE SFR              ON UNIT   1015 AT TIME STEP     21, STRESS PERIOD      2
 UBDSV06 SAVING          STORAGE IN MODEL EXPERIMENTAL     PACKAGE SFR             CONNECTED TO MODEL EXPERIMENTAL     PACKAGE SFR              ON UNIT   1015 AT TIME STEP     21, STRESS PERIOD      2

 HEAD WILL BE SAVED ON UNIT 1020 AT END OF TIME STEP   21, STRESS PERIOD    2

end timestep


start timestep kper="2" kstp="22" mode="normal"

 UBDSV1 SAVING           STO-SS ON UNIT   1019 AT TIME STEP     22, STRESS PERIOD      2
 UBDSV1 SAVING           STO-SY ON UNIT   1019 AT TIME STEP     22, STRESS PERIOD      2
 UBDSV1 SAVING     FLOW-JA-FACE ON UNIT   1019 AT TIME STEP     22, STRESS PERIOD      2
 UBDSV06 SAVING              GHB IN MODEL EXPERIMENTAL     PACKAGE EXPERIMENTAL    CONNECTED TO MODEL EXPERIMENTAL     PACKAGE GHB              ON UNIT   1019 AT TIME STEP     22, STRESS PERIOD      2
 UBDSV06 SAVING              RCH IN MODEL EXPERIMENTAL     PACKAGE EXPERIMENTAL    CONNECTED TO MODEL EXPERIMENTAL     PACKAGE RCH              ON UNIT   1019 AT TIME STEP     22, STRESS PERIOD      2
 UBDSV06 SAVING              SFR IN MODEL EXPERIMENTAL     PACKAGE EXPERIMENTAL    CONNECTED TO MODEL EXPERIMENTAL     PACKAGE SFR              ON UNIT   1019 AT TIME STEP     22, STRESS PERIOD      2
 UBDSV06 SAVING     FLOW-JA-FACE IN MODEL EXPERIMENTAL     PACKAGE SFR             CONNECTED TO MODEL EXPERIMENTAL     PACKAGE SFR              ON UNIT   1015 AT TIME STEP     22, STRESS PERIOD      2
 UBDSV06 SAVING              GWF IN MODEL EXPERIMENTAL     PACKAGE SFR             CONNECTED TO MODEL EXPERIMENTAL     PACKAGE EXPERIMENTAL     ON UNIT   1015 AT TIME STEP     22, STRESS PERIOD      2
 UBDSV06 SAVING         RAINFALL IN MODEL EXPERIMENTAL     PACKAGE SFR             CONNECTED TO MODEL EXPERIMENTAL     PACKAGE SFR              ON UNIT   1015 AT TIME STEP     22, STRESS PERIOD      2
 UBDSV06 SAVING      EVAPORATION IN MODEL EXPERIMENTAL     PACKAGE SFR             CONNECTED TO MODEL EXPERIMENTAL     PACKAGE SFR              ON UNIT   1015 AT TIME STEP     22, STRESS PERIOD      2
 UBDSV06 SAVING           RUNOFF IN MODEL EXPERIMENTAL     PACKAGE SFR             CONNECTED TO MODEL EXPERIMENTAL     PACKAGE SFR              ON UNIT   1015 AT TIME STEP     22, STRESS PERIOD      2
 UBDSV06 SAVING       EXT-INFLOW IN MODEL EXPERIMENTAL     PACKAGE SFR             CONNECTED TO MODEL EXPERIMENTAL     PACKAGE SFR              ON UNIT   1015 AT TIME STEP     22, STRESS PERIOD      2
 UBDSV06 SAVING      EXT-OUTFLOW IN MODEL EXPERIMENTAL     PACKAGE SFR             CONNECTED TO MODEL EXPERIMENTAL     PACKAGE SFR              ON UNIT   1015 AT TIME STEP     22, STRESS PERIOD      2
 UBDSV06 SAVING          STORAGE IN MODEL EXPERIMENTAL     PACKAGE SFR             CONNECTED TO MODEL EXPERIMENTAL     PACKAGE SFR              ON UNIT   1015 AT TIME STEP     22, STRESS PERIOD      2

 HEAD WILL BE SAVED ON UNIT 1020 AT END OF TIME STEP   22, STRESS PERIOD    2

end timestep


start timestep kper="2" kstp="23" mode="normal"

 UBDSV1 SAVING           STO-SS ON UNIT   1019 AT TIME STEP     23, STRESS PERIOD      2
 UBDSV1 SAVING           STO-SY ON UNIT   1019 AT TIME STEP     23, STRESS PERIOD      2
 UBDSV1 SAVING     FLOW-JA-FACE ON UNIT   1019 AT TIME STEP     23, STRESS PERIOD      2
 UBDSV06 SAVING              GHB IN MODEL EXPERIMENTAL     PACKAGE EXPERIMENTAL    CONNECTED TO MODEL EXPERIMENTAL     PACKAGE GHB              ON UNIT   1019 AT TIME STEP     23, STRESS PERIOD      2
 UBDSV06 SAVING              RCH IN MODEL EXPERIMENTAL     PACKAGE EXPERIMENTAL    CONNECTED TO MODEL EXPERIMENTAL     PACKAGE RCH              ON UNIT   1019 AT TIME STEP     23, STRESS PERIOD      2
 UBDSV06 SAVING              SFR IN MODEL EXPERIMENTAL     PACKAGE EXPERIMENTAL    CONNECTED TO MODEL EXPERIMENTAL     PACKAGE SFR              ON UNIT   1019 AT TIME STEP     23, STRESS PERIOD      2
 UBDSV06 SAVING     FLOW-JA-FACE IN MODEL EXPERIMENTAL     PACKAGE SFR             CONNECTED TO MODEL EXPERIMENTAL     PACKAGE SFR              ON UNIT   1015 AT TIME STEP     23, STRESS PERIOD      2
 UBDSV06 SAVING              GWF IN MODEL EXPERIMENTAL     PACKAGE SFR             CONNECTED TO MODEL EXPERIMENTAL     PACKAGE EXPERIMENTAL     ON UNIT   1015 AT TIME STEP     23, STRESS PERIOD      2
 UBDSV06 SAVING         RAINFALL IN MODEL EXPERIMENTAL     PACKAGE SFR             CONNECTED TO MODEL EXPERIMENTAL     PACKAGE SFR              ON UNIT   1015 AT TIME STEP     23, STRESS PERIOD      2
 UBDSV06 SAVING      EVAPORATION IN MODEL EXPERIMENTAL     PACKAGE SFR             CONNECTED TO MODEL EXPERIMENTAL     PACKAGE SFR              ON UNIT   1015 AT TIME STEP     23, STRESS PERIOD      2
 UBDSV06 SAVING           RUNOFF IN MODEL EXPERIMENTAL     PACKAGE SFR             CONNECTED TO MODEL EXPERIMENTAL     PACKAGE SFR              ON UNIT   1015 AT TIME STEP     23, STRESS PERIOD      2
 UBDSV06 SAVING       EXT-INFLOW IN MODEL EXPERIMENTAL     PACKAGE SFR             CONNECTED TO MODEL EXPERIMENTAL     PACKAGE SFR              ON UNIT   1015 AT TIME STEP     23, STRESS PERIOD      2
 UBDSV06 SAVING      EXT-OUTFLOW IN MODEL EXPERIMENTAL     PACKAGE SFR             CONNECTED TO MODEL EXPERIMENTAL     PACKAGE SFR              ON UNIT   1015 AT TIME STEP     23, STRESS PERIOD      2
 UBDSV06 SAVING          STORAGE IN MODEL EXPERIMENTAL     PACKAGE SFR             CONNECTED TO MODEL EXPERIMENTAL     PACKAGE SFR              ON UNIT   1015 AT TIME STEP     23, STRESS PERIOD      2

 HEAD WILL BE SAVED ON UNIT 1020 AT END OF TIME STEP   23, STRESS PERIOD    2

end timestep


start timestep kper="2" kstp="24" mode="normal"

 UBDSV1 SAVING           STO-SS ON UNIT   1019 AT TIME STEP     24, STRESS PERIOD      2
 UBDSV1 SAVING           STO-SY ON UNIT   1019 AT TIME STEP     24, STRESS PERIOD      2
 UBDSV1 SAVING     FLOW-JA-FACE ON UNIT   1019 AT TIME STEP     24, STRESS PERIOD      2
 UBDSV06 SAVING              GHB IN MODEL EXPERIMENTAL     PACKAGE EXPERIMENTAL    CONNECTED TO MODEL EXPERIMENTAL     PACKAGE GHB              ON UNIT   1019 AT TIME STEP     24, STRESS PERIOD      2
 UBDSV06 SAVING              RCH IN MODEL EXPERIMENTAL     PACKAGE EXPERIMENTAL    CONNECTED TO MODEL EXPERIMENTAL     PACKAGE RCH              ON UNIT   1019 AT TIME STEP     24, STRESS PERIOD      2
 UBDSV06 SAVING              SFR IN MODEL EXPERIMENTAL     PACKAGE EXPERIMENTAL    CONNECTED TO MODEL EXPERIMENTAL     PACKAGE SFR              ON UNIT   1019 AT TIME STEP     24, STRESS PERIOD      2
 UBDSV06 SAVING     FLOW-JA-FACE IN MODEL EXPERIMENTAL     PACKAGE SFR             CONNECTED TO MODEL EXPERIMENTAL     PACKAGE SFR              ON UNIT   1015 AT TIME STEP     24, STRESS PERIOD      2
 UBDSV06 SAVING              GWF IN MODEL EXPERIMENTAL     PACKAGE SFR             CONNECTED TO MODEL EXPERIMENTAL     PACKAGE EXPERIMENTAL     ON UNIT   1015 AT TIME STEP     24, STRESS PERIOD      2
 UBDSV06 SAVING         RAINFALL IN MODEL EXPERIMENTAL     PACKAGE SFR             CONNECTED TO MODEL EXPERIMENTAL     PACKAGE SFR              ON UNIT   1015 AT TIME STEP     24, STRESS PERIOD      2
 UBDSV06 SAVING      EVAPORATION IN MODEL EXPERIMENTAL     PACKAGE SFR             CONNECTED TO MODEL EXPERIMENTAL     PACKAGE SFR              ON UNIT   1015 AT TIME STEP     24, STRESS PERIOD      2
 UBDSV06 SAVING           RUNOFF IN MODEL EXPERIMENTAL     PACKAGE SFR             CONNECTED TO MODEL EXPERIMENTAL     PACKAGE SFR              ON UNIT   1015 AT TIME STEP     24, STRESS PERIOD      2
 UBDSV06 SAVING       EXT-INFLOW IN MODEL EXPERIMENTAL     PACKAGE SFR             CONNECTED TO MODEL EXPERIMENTAL     PACKAGE SFR              ON UNIT   1015 AT TIME STEP     24, STRESS PERIOD      2
 UBDSV06 SAVING      EXT-OUTFLOW IN MODEL EXPERIMENTAL     PACKAGE SFR             CONNECTED TO MODEL EXPERIMENTAL     PACKAGE SFR              ON UNIT   1015 AT TIME STEP     24, STRESS PERIOD      2
 UBDSV06 SAVING          STORAGE IN MODEL EXPERIMENTAL     PACKAGE SFR             CONNECTED TO MODEL EXPERIMENTAL     PACKAGE SFR              ON UNIT   1015 AT TIME STEP     24, STRESS PERIOD      2

 HEAD WILL BE SAVED ON UNIT 1020 AT END OF TIME STEP   24, STRESS PERIOD    2

end timestep


start timestep kper="2" kstp="25" mode="normal"

 UBDSV1 SAVING           STO-SS ON UNIT   1019 AT TIME STEP     25, STRESS PERIOD      2
 UBDSV1 SAVING           STO-SY ON UNIT   1019 AT TIME STEP     25, STRESS PERIOD      2
 UBDSV1 SAVING     FLOW-JA-FACE ON UNIT   1019 AT TIME STEP     25, STRESS PERIOD      2
 UBDSV06 SAVING              GHB IN MODEL EXPERIMENTAL     PACKAGE EXPERIMENTAL    CONNECTED TO MODEL EXPERIMENTAL     PACKAGE GHB              ON UNIT   1019 AT TIME STEP     25, STRESS PERIOD      2
 UBDSV06 SAVING              RCH IN MODEL EXPERIMENTAL     PACKAGE EXPERIMENTAL    CONNECTED TO MODEL EXPERIMENTAL     PACKAGE RCH              ON UNIT   1019 AT TIME STEP     25, STRESS PERIOD      2
 UBDSV06 SAVING              SFR IN MODEL EXPERIMENTAL     PACKAGE EXPERIMENTAL    CONNECTED TO MODEL EXPERIMENTAL     PACKAGE SFR              ON UNIT   1019 AT TIME STEP     25, STRESS PERIOD      2
 UBDSV06 SAVING     FLOW-JA-FACE IN MODEL EXPERIMENTAL     PACKAGE SFR             CONNECTED TO MODEL EXPERIMENTAL     PACKAGE SFR              ON UNIT   1015 AT TIME STEP     25, STRESS PERIOD      2
 UBDSV06 SAVING              GWF IN MODEL EXPERIMENTAL     PACKAGE SFR             CONNECTED TO MODEL EXPERIMENTAL     PACKAGE EXPERIMENTAL     ON UNIT   1015 AT TIME STEP     25, STRESS PERIOD      2
 UBDSV06 SAVING         RAINFALL IN MODEL EXPERIMENTAL     PACKAGE SFR             CONNECTED TO MODEL EXPERIMENTAL     PACKAGE SFR              ON UNIT   1015 AT TIME STEP     25, STRESS PERIOD      2
 UBDSV06 SAVING      EVAPORATION IN MODEL EXPERIMENTAL     PACKAGE SFR             CONNECTED TO MODEL EXPERIMENTAL     PACKAGE SFR              ON UNIT   1015 AT TIME STEP     25, STRESS PERIOD      2
 UBDSV06 SAVING           RUNOFF IN MODEL EXPERIMENTAL     PACKAGE SFR             CONNECTED TO MODEL EXPERIMENTAL     PACKAGE SFR              ON UNIT   1015 AT TIME STEP     25, STRESS PERIOD      2
 UBDSV06 SAVING       EXT-INFLOW IN MODEL EXPERIMENTAL     PACKAGE SFR             CONNECTED TO MODEL EXPERIMENTAL     PACKAGE SFR              ON UNIT   1015 AT TIME STEP     25, STRESS PERIOD      2
 UBDSV06 SAVING      EXT-OUTFLOW IN MODEL EXPERIMENTAL     PACKAGE SFR             CONNECTED TO MODEL EXPERIMENTAL     PACKAGE SFR              ON UNIT   1015 AT TIME STEP     25, STRESS PERIOD      2
 UBDSV06 SAVING          STORAGE IN MODEL EXPERIMENTAL     PACKAGE SFR             CONNECTED TO MODEL EXPERIMENTAL     PACKAGE SFR              ON UNIT   1015 AT TIME STEP     25, STRESS PERIOD      2

 HEAD WILL BE SAVED ON UNIT 1020 AT END OF TIME STEP   25, STRESS PERIOD    2

end timestep


start timestep kper="2" kstp="26" mode="normal"

 UBDSV1 SAVING           STO-SS ON UNIT   1019 AT TIME STEP     26, STRESS PERIOD      2
 UBDSV1 SAVING           STO-SY ON UNIT   1019 AT TIME STEP     26, STRESS PERIOD      2
 UBDSV1 SAVING     FLOW-JA-FACE ON UNIT   1019 AT TIME STEP     26, STRESS PERIOD      2
 UBDSV06 SAVING              GHB IN MODEL EXPERIMENTAL     PACKAGE EXPERIMENTAL    CONNECTED TO MODEL EXPERIMENTAL     PACKAGE GHB              ON UNIT   1019 AT TIME STEP     26, STRESS PERIOD      2
 UBDSV06 SAVING              RCH IN MODEL EXPERIMENTAL     PACKAGE EXPERIMENTAL    CONNECTED TO MODEL EXPERIMENTAL     PACKAGE RCH              ON UNIT   1019 AT TIME STEP     26, STRESS PERIOD      2
 UBDSV06 SAVING              SFR IN MODEL EXPERIMENTAL     PACKAGE EXPERIMENTAL    CONNECTED TO MODEL EXPERIMENTAL     PACKAGE SFR              ON UNIT   1019 AT TIME STEP     26, STRESS PERIOD      2
 UBDSV06 SAVING     FLOW-JA-FACE IN MODEL EXPERIMENTAL     PACKAGE SFR             CONNECTED TO MODEL EXPERIMENTAL     PACKAGE SFR              ON UNIT   1015 AT TIME STEP     26, STRESS PERIOD      2
 UBDSV06 SAVING              GWF IN MODEL EXPERIMENTAL     PACKAGE SFR             CONNECTED TO MODEL EXPERIMENTAL     PACKAGE EXPERIMENTAL     ON UNIT   1015 AT TIME STEP     26, STRESS PERIOD      2
 UBDSV06 SAVING         RAINFALL IN MODEL EXPERIMENTAL     PACKAGE SFR             CONNECTED TO MODEL EXPERIMENTAL     PACKAGE SFR              ON UNIT   1015 AT TIME STEP     26, STRESS PERIOD      2
 UBDSV06 SAVING      EVAPORATION IN MODEL EXPERIMENTAL     PACKAGE SFR             CONNECTED TO MODEL EXPERIMENTAL     PACKAGE SFR              ON UNIT   1015 AT TIME STEP     26, STRESS PERIOD      2
 UBDSV06 SAVING           RUNOFF IN MODEL EXPERIMENTAL     PACKAGE SFR             CONNECTED TO MODEL EXPERIMENTAL     PACKAGE SFR              ON UNIT   1015 AT TIME STEP     26, STRESS PERIOD      2
 UBDSV06 SAVING       EXT-INFLOW IN MODEL EXPERIMENTAL     PACKAGE SFR             CONNECTED TO MODEL EXPERIMENTAL     PACKAGE SFR              ON UNIT   1015 AT TIME STEP     26, STRESS PERIOD      2
 UBDSV06 SAVING      EXT-OUTFLOW IN MODEL EXPERIMENTAL     PACKAGE SFR             CONNECTED TO MODEL EXPERIMENTAL     PACKAGE SFR              ON UNIT   1015 AT TIME STEP     26, STRESS PERIOD      2
 UBDSV06 SAVING          STORAGE IN MODEL EXPERIMENTAL     PACKAGE SFR             CONNECTED TO MODEL EXPERIMENTAL     PACKAGE SFR              ON UNIT   1015 AT TIME STEP     26, STRESS PERIOD      2

 HEAD WILL BE SAVED ON UNIT 1020 AT END OF TIME STEP   26, STRESS PERIOD    2

end timestep


start timestep kper="2" kstp="27" mode="normal"

 UBDSV1 SAVING           STO-SS ON UNIT   1019 AT TIME STEP     27, STRESS PERIOD      2
 UBDSV1 SAVING           STO-SY ON UNIT   1019 AT TIME STEP     27, STRESS PERIOD      2
 UBDSV1 SAVING     FLOW-JA-FACE ON UNIT   1019 AT TIME STEP     27, STRESS PERIOD      2
 UBDSV06 SAVING              GHB IN MODEL EXPERIMENTAL     PACKAGE EXPERIMENTAL    CONNECTED TO MODEL EXPERIMENTAL     PACKAGE GHB              ON UNIT   1019 AT TIME STEP     27, STRESS PERIOD      2
 UBDSV06 SAVING              RCH IN MODEL EXPERIMENTAL     PACKAGE EXPERIMENTAL    CONNECTED TO MODEL EXPERIMENTAL     PACKAGE RCH              ON UNIT   1019 AT TIME STEP     27, STRESS PERIOD      2
 UBDSV06 SAVING              SFR IN MODEL EXPERIMENTAL     PACKAGE EXPERIMENTAL    CONNECTED TO MODEL EXPERIMENTAL     PACKAGE SFR              ON UNIT   1019 AT TIME STEP     27, STRESS PERIOD      2
 UBDSV06 SAVING     FLOW-JA-FACE IN MODEL EXPERIMENTAL     PACKAGE SFR             CONNECTED TO MODEL EXPERIMENTAL     PACKAGE SFR              ON UNIT   1015 AT TIME STEP     27, STRESS PERIOD      2
 UBDSV06 SAVING              GWF IN MODEL EXPERIMENTAL     PACKAGE SFR             CONNECTED TO MODEL EXPERIMENTAL     PACKAGE EXPERIMENTAL     ON UNIT   1015 AT TIME STEP     27, STRESS PERIOD      2
 UBDSV06 SAVING         RAINFALL IN MODEL EXPERIMENTAL     PACKAGE SFR             CONNECTED TO MODEL EXPERIMENTAL     PACKAGE SFR              ON UNIT   1015 AT TIME STEP     27, STRESS PERIOD      2
 UBDSV06 SAVING      EVAPORATION IN MODEL EXPERIMENTAL     PACKAGE SFR             CONNECTED TO MODEL EXPERIMENTAL     PACKAGE SFR              ON UNIT   1015 AT TIME STEP     27, STRESS PERIOD      2
 UBDSV06 SAVING           RUNOFF IN MODEL EXPERIMENTAL     PACKAGE SFR             CONNECTED TO MODEL EXPERIMENTAL     PACKAGE SFR              ON UNIT   1015 AT TIME STEP     27, STRESS PERIOD      2
 UBDSV06 SAVING       EXT-INFLOW IN MODEL EXPERIMENTAL     PACKAGE SFR             CONNECTED TO MODEL EXPERIMENTAL     PACKAGE SFR              ON UNIT   1015 AT TIME STEP     27, STRESS PERIOD      2
 UBDSV06 SAVING      EXT-OUTFLOW IN MODEL EXPERIMENTAL     PACKAGE SFR             CONNECTED TO MODEL EXPERIMENTAL     PACKAGE SFR              ON UNIT   1015 AT TIME STEP     27, STRESS PERIOD      2
 UBDSV06 SAVING          STORAGE IN MODEL EXPERIMENTAL     PACKAGE SFR             CONNECTED TO MODEL EXPERIMENTAL     PACKAGE SFR              ON UNIT   1015 AT TIME STEP     27, STRESS PERIOD      2

 HEAD WILL BE SAVED ON UNIT 1020 AT END OF TIME STEP   27, STRESS PERIOD    2

end timestep


start timestep kper="2" kstp="28" mode="normal"

 UBDSV1 SAVING           STO-SS ON UNIT   1019 AT TIME STEP     28, STRESS PERIOD      2
 UBDSV1 SAVING           STO-SY ON UNIT   1019 AT TIME STEP     28, STRESS PERIOD      2
 UBDSV1 SAVING     FLOW-JA-FACE ON UNIT   1019 AT TIME STEP     28, STRESS PERIOD      2
 UBDSV06 SAVING              GHB IN MODEL EXPERIMENTAL     PACKAGE EXPERIMENTAL    CONNECTED TO MODEL EXPERIMENTAL     PACKAGE GHB              ON UNIT   1019 AT TIME STEP     28, STRESS PERIOD      2
 UBDSV06 SAVING              RCH IN MODEL EXPERIMENTAL     PACKAGE EXPERIMENTAL    CONNECTED TO MODEL EXPERIMENTAL     PACKAGE RCH              ON UNIT   1019 AT TIME STEP     28, STRESS PERIOD      2
 UBDSV06 SAVING              SFR IN MODEL EXPERIMENTAL     PACKAGE EXPERIMENTAL    CONNECTED TO MODEL EXPERIMENTAL     PACKAGE SFR              ON UNIT   1019 AT TIME STEP     28, STRESS PERIOD      2
 UBDSV06 SAVING     FLOW-JA-FACE IN MODEL EXPERIMENTAL     PACKAGE SFR             CONNECTED TO MODEL EXPERIMENTAL     PACKAGE SFR              ON UNIT   1015 AT TIME STEP     28, STRESS PERIOD      2
 UBDSV06 SAVING              GWF IN MODEL EXPERIMENTAL     PACKAGE SFR             CONNECTED TO MODEL EXPERIMENTAL     PACKAGE EXPERIMENTAL     ON UNIT   1015 AT TIME STEP     28, STRESS PERIOD      2
 UBDSV06 SAVING         RAINFALL IN MODEL EXPERIMENTAL     PACKAGE SFR             CONNECTED TO MODEL EXPERIMENTAL     PACKAGE SFR              ON UNIT   1015 AT TIME STEP     28, STRESS PERIOD      2
 UBDSV06 SAVING      EVAPORATION IN MODEL EXPERIMENTAL     PACKAGE SFR             CONNECTED TO MODEL EXPERIMENTAL     PACKAGE SFR              ON UNIT   1015 AT TIME STEP     28, STRESS PERIOD      2
 UBDSV06 SAVING           RUNOFF IN MODEL EXPERIMENTAL     PACKAGE SFR             CONNECTED TO MODEL EXPERIMENTAL     PACKAGE SFR              ON UNIT   1015 AT TIME STEP     28, STRESS PERIOD      2
 UBDSV06 SAVING       EXT-INFLOW IN MODEL EXPERIMENTAL     PACKAGE SFR             CONNECTED TO MODEL EXPERIMENTAL     PACKAGE SFR              ON UNIT   1015 AT TIME STEP     28, STRESS PERIOD      2
 UBDSV06 SAVING      EXT-OUTFLOW IN MODEL EXPERIMENTAL     PACKAGE SFR             CONNECTED TO MODEL EXPERIMENTAL     PACKAGE SFR              ON UNIT   1015 AT TIME STEP     28, STRESS PERIOD      2
 UBDSV06 SAVING          STORAGE IN MODEL EXPERIMENTAL     PACKAGE SFR             CONNECTED TO MODEL EXPERIMENTAL     PACKAGE SFR              ON UNIT   1015 AT TIME STEP     28, STRESS PERIOD      2

 HEAD WILL BE SAVED ON UNIT 1020 AT END OF TIME STEP   28, STRESS PERIOD    2

end timestep


start timestep kper="2" kstp="29" mode="normal"

 UBDSV1 SAVING           STO-SS ON UNIT   1019 AT TIME STEP     29, STRESS PERIOD      2
 UBDSV1 SAVING           STO-SY ON UNIT   1019 AT TIME STEP     29, STRESS PERIOD      2
 UBDSV1 SAVING     FLOW-JA-FACE ON UNIT   1019 AT TIME STEP     29, STRESS PERIOD      2
 UBDSV06 SAVING              GHB IN MODEL EXPERIMENTAL     PACKAGE EXPERIMENTAL    CONNECTED TO MODEL EXPERIMENTAL     PACKAGE GHB              ON UNIT   1019 AT TIME STEP     29, STRESS PERIOD      2
 UBDSV06 SAVING              RCH IN MODEL EXPERIMENTAL     PACKAGE EXPERIMENTAL    CONNECTED TO MODEL EXPERIMENTAL     PACKAGE RCH              ON UNIT   1019 AT TIME STEP     29, STRESS PERIOD      2
 UBDSV06 SAVING              SFR IN MODEL EXPERIMENTAL     PACKAGE EXPERIMENTAL    CONNECTED TO MODEL EXPERIMENTAL     PACKAGE SFR              ON UNIT   1019 AT TIME STEP     29, STRESS PERIOD      2
 UBDSV06 SAVING     FLOW-JA-FACE IN MODEL EXPERIMENTAL     PACKAGE SFR             CONNECTED TO MODEL EXPERIMENTAL     PACKAGE SFR              ON UNIT   1015 AT TIME STEP     29, STRESS PERIOD      2
 UBDSV06 SAVING              GWF IN MODEL EXPERIMENTAL     PACKAGE SFR             CONNECTED TO MODEL EXPERIMENTAL     PACKAGE EXPERIMENTAL     ON UNIT   1015 AT TIME STEP     29, STRESS PERIOD      2
 UBDSV06 SAVING         RAINFALL IN MODEL EXPERIMENTAL     PACKAGE SFR             CONNECTED TO MODEL EXPERIMENTAL     PACKAGE SFR              ON UNIT   1015 AT TIME STEP     29, STRESS PERIOD      2
 UBDSV06 SAVING      EVAPORATION IN MODEL EXPERIMENTAL     PACKAGE SFR             CONNECTED TO MODEL EXPERIMENTAL     PACKAGE SFR              ON UNIT   1015 AT TIME STEP     29, STRESS PERIOD      2
 UBDSV06 SAVING           RUNOFF IN MODEL EXPERIMENTAL     PACKAGE SFR             CONNECTED TO MODEL EXPERIMENTAL     PACKAGE SFR              ON UNIT   1015 AT TIME STEP     29, STRESS PERIOD      2
 UBDSV06 SAVING       EXT-INFLOW IN MODEL EXPERIMENTAL     PACKAGE SFR             CONNECTED TO MODEL EXPERIMENTAL     PACKAGE SFR              ON UNIT   1015 AT TIME STEP     29, STRESS PERIOD      2
 UBDSV06 SAVING      EXT-OUTFLOW IN MODEL EXPERIMENTAL     PACKAGE SFR             CONNECTED TO MODEL EXPERIMENTAL     PACKAGE SFR              ON UNIT   1015 AT TIME STEP     29, STRESS PERIOD      2
 UBDSV06 SAVING          STORAGE IN MODEL EXPERIMENTAL     PACKAGE SFR             CONNECTED TO MODEL EXPERIMENTAL     PACKAGE SFR              ON UNIT   1015 AT TIME STEP     29, STRESS PERIOD      2

 HEAD WILL BE SAVED ON UNIT 1020 AT END OF TIME STEP   29, STRESS PERIOD    2

end timestep


start timestep kper="2" kstp="30" mode="normal"

 UBDSV1 SAVING           STO-SS ON UNIT   1019 AT TIME STEP     30, STRESS PERIOD      2
 UBDSV1 SAVING           STO-SY ON UNIT   1019 AT TIME STEP     30, STRESS PERIOD      2
 UBDSV1 SAVING     FLOW-JA-FACE ON UNIT   1019 AT TIME STEP     30, STRESS PERIOD      2
 UBDSV06 SAVING              GHB IN MODEL EXPERIMENTAL     PACKAGE EXPERIMENTAL    CONNECTED TO MODEL EXPERIMENTAL     PACKAGE GHB              ON UNIT   1019 AT TIME STEP     30, STRESS PERIOD      2
 UBDSV06 SAVING              RCH IN MODEL EXPERIMENTAL     PACKAGE EXPERIMENTAL    CONNECTED TO MODEL EXPERIMENTAL     PACKAGE RCH              ON UNIT   1019 AT TIME STEP     30, STRESS PERIOD      2
 UBDSV06 SAVING              SFR IN MODEL EXPERIMENTAL     PACKAGE EXPERIMENTAL    CONNECTED TO MODEL EXPERIMENTAL     PACKAGE SFR              ON UNIT   1019 AT TIME STEP     30, STRESS PERIOD      2
 UBDSV06 SAVING     FLOW-JA-FACE IN MODEL EXPERIMENTAL     PACKAGE SFR             CONNECTED TO MODEL EXPERIMENTAL     PACKAGE SFR              ON UNIT   1015 AT TIME STEP     30, STRESS PERIOD      2
 UBDSV06 SAVING              GWF IN MODEL EXPERIMENTAL     PACKAGE SFR             CONNECTED TO MODEL EXPERIMENTAL     PACKAGE EXPERIMENTAL     ON UNIT   1015 AT TIME STEP     30, STRESS PERIOD      2
 UBDSV06 SAVING         RAINFALL IN MODEL EXPERIMENTAL     PACKAGE SFR             CONNECTED TO MODEL EXPERIMENTAL     PACKAGE SFR              ON UNIT   1015 AT TIME STEP     30, STRESS PERIOD      2
 UBDSV06 SAVING      EVAPORATION IN MODEL EXPERIMENTAL     PACKAGE SFR             CONNECTED TO MODEL EXPERIMENTAL     PACKAGE SFR              ON UNIT   1015 AT TIME STEP     30, STRESS PERIOD      2
 UBDSV06 SAVING           RUNOFF IN MODEL EXPERIMENTAL     PACKAGE SFR             CONNECTED TO MODEL EXPERIMENTAL     PACKAGE SFR              ON UNIT   1015 AT TIME STEP     30, STRESS PERIOD      2
 UBDSV06 SAVING       EXT-INFLOW IN MODEL EXPERIMENTAL     PACKAGE SFR             CONNECTED TO MODEL EXPERIMENTAL     PACKAGE SFR              ON UNIT   1015 AT TIME STEP     30, STRESS PERIOD      2
 UBDSV06 SAVING      EXT-OUTFLOW IN MODEL EXPERIMENTAL     PACKAGE SFR             CONNECTED TO MODEL EXPERIMENTAL     PACKAGE SFR              ON UNIT   1015 AT TIME STEP     30, STRESS PERIOD      2
 UBDSV06 SAVING          STORAGE IN MODEL EXPERIMENTAL     PACKAGE SFR             CONNECTED TO MODEL EXPERIMENTAL     PACKAGE SFR              ON UNIT   1015 AT TIME STEP     30, STRESS PERIOD      2

 HEAD WILL BE SAVED ON UNIT 1020 AT END OF TIME STEP   30, STRESS PERIOD    2

end timestep


start timestep kper="2" kstp="31" mode="normal"

 UBDSV1 SAVING           STO-SS ON UNIT   1019 AT TIME STEP     31, STRESS PERIOD      2
 UBDSV1 SAVING           STO-SY ON UNIT   1019 AT TIME STEP     31, STRESS PERIOD      2
 UBDSV1 SAVING     FLOW-JA-FACE ON UNIT   1019 AT TIME STEP     31, STRESS PERIOD      2
 UBDSV06 SAVING              GHB IN MODEL EXPERIMENTAL     PACKAGE EXPERIMENTAL    CONNECTED TO MODEL EXPERIMENTAL     PACKAGE GHB              ON UNIT   1019 AT TIME STEP     31, STRESS PERIOD      2
 UBDSV06 SAVING              RCH IN MODEL EXPERIMENTAL     PACKAGE EXPERIMENTAL    CONNECTED TO MODEL EXPERIMENTAL     PACKAGE RCH              ON UNIT   1019 AT TIME STEP     31, STRESS PERIOD      2
 UBDSV06 SAVING              SFR IN MODEL EXPERIMENTAL     PACKAGE EXPERIMENTAL    CONNECTED TO MODEL EXPERIMENTAL     PACKAGE SFR              ON UNIT   1019 AT TIME STEP     31, STRESS PERIOD      2
 UBDSV06 SAVING     FLOW-JA-FACE IN MODEL EXPERIMENTAL     PACKAGE SFR             CONNECTED TO MODEL EXPERIMENTAL     PACKAGE SFR              ON UNIT   1015 AT TIME STEP     31, STRESS PERIOD      2
 UBDSV06 SAVING              GWF IN MODEL EXPERIMENTAL     PACKAGE SFR             CONNECTED TO MODEL EXPERIMENTAL     PACKAGE EXPERIMENTAL     ON UNIT   1015 AT TIME STEP     31, STRESS PERIOD      2
 UBDSV06 SAVING         RAINFALL IN MODEL EXPERIMENTAL     PACKAGE SFR             CONNECTED TO MODEL EXPERIMENTAL     PACKAGE SFR              ON UNIT   1015 AT TIME STEP     31, STRESS PERIOD      2
 UBDSV06 SAVING      EVAPORATION IN MODEL EXPERIMENTAL     PACKAGE SFR             CONNECTED TO MODEL EXPERIMENTAL     PACKAGE SFR              ON UNIT   1015 AT TIME STEP     31, STRESS PERIOD      2
 UBDSV06 SAVING           RUNOFF IN MODEL EXPERIMENTAL     PACKAGE SFR             CONNECTED TO MODEL EXPERIMENTAL     PACKAGE SFR              ON UNIT   1015 AT TIME STEP     31, STRESS PERIOD      2
 UBDSV06 SAVING       EXT-INFLOW IN MODEL EXPERIMENTAL     PACKAGE SFR             CONNECTED TO MODEL EXPERIMENTAL     PACKAGE SFR              ON UNIT   1015 AT TIME STEP     31, STRESS PERIOD      2
 UBDSV06 SAVING      EXT-OUTFLOW IN MODEL EXPERIMENTAL     PACKAGE SFR             CONNECTED TO MODEL EXPERIMENTAL     PACKAGE SFR              ON UNIT   1015 AT TIME STEP     31, STRESS PERIOD      2
 UBDSV06 SAVING          STORAGE IN MODEL EXPERIMENTAL     PACKAGE SFR             CONNECTED TO MODEL EXPERIMENTAL     PACKAGE SFR              ON UNIT   1015 AT TIME STEP     31, STRESS PERIOD      2

 HEAD WILL BE SAVED ON UNIT 1020 AT END OF TIME STEP   31, STRESS PERIOD    2

end timestep


start timestep kper="2" kstp="32" mode="normal"

 UBDSV1 SAVING           STO-SS ON UNIT   1019 AT TIME STEP     32, STRESS PERIOD      2
 UBDSV1 SAVING           STO-SY ON UNIT   1019 AT TIME STEP     32, STRESS PERIOD      2
 UBDSV1 SAVING     FLOW-JA-FACE ON UNIT   1019 AT TIME STEP     32, STRESS PERIOD      2
 UBDSV06 SAVING              GHB IN MODEL EXPERIMENTAL     PACKAGE EXPERIMENTAL    CONNECTED TO MODEL EXPERIMENTAL     PACKAGE GHB              ON UNIT   1019 AT TIME STEP     32, STRESS PERIOD      2
 UBDSV06 SAVING              RCH IN MODEL EXPERIMENTAL     PACKAGE EXPERIMENTAL    CONNECTED TO MODEL EXPERIMENTAL     PACKAGE RCH              ON UNIT   1019 AT TIME STEP     32, STRESS PERIOD      2
 UBDSV06 SAVING              SFR IN MODEL EXPERIMENTAL     PACKAGE EXPERIMENTAL    CONNECTED TO MODEL EXPERIMENTAL     PACKAGE SFR              ON UNIT   1019 AT TIME STEP     32, STRESS PERIOD      2
 UBDSV06 SAVING     FLOW-JA-FACE IN MODEL EXPERIMENTAL     PACKAGE SFR             CONNECTED TO MODEL EXPERIMENTAL     PACKAGE SFR              ON UNIT   1015 AT TIME STEP     32, STRESS PERIOD      2
 UBDSV06 SAVING              GWF IN MODEL EXPERIMENTAL     PACKAGE SFR             CONNECTED TO MODEL EXPERIMENTAL     PACKAGE EXPERIMENTAL     ON UNIT   1015 AT TIME STEP     32, STRESS PERIOD      2
 UBDSV06 SAVING         RAINFALL IN MODEL EXPERIMENTAL     PACKAGE SFR             CONNECTED TO MODEL EXPERIMENTAL     PACKAGE SFR              ON UNIT   1015 AT TIME STEP     32, STRESS PERIOD      2
 UBDSV06 SAVING      EVAPORATION IN MODEL EXPERIMENTAL     PACKAGE SFR             CONNECTED TO MODEL EXPERIMENTAL     PACKAGE SFR              ON UNIT   1015 AT TIME STEP     32, STRESS PERIOD      2
 UBDSV06 SAVING           RUNOFF IN MODEL EXPERIMENTAL     PACKAGE SFR             CONNECTED TO MODEL EXPERIMENTAL     PACKAGE SFR              ON UNIT   1015 AT TIME STEP     32, STRESS PERIOD      2
 UBDSV06 SAVING       EXT-INFLOW IN MODEL EXPERIMENTAL     PACKAGE SFR             CONNECTED TO MODEL EXPERIMENTAL     PACKAGE SFR              ON UNIT   1015 AT TIME STEP     32, STRESS PERIOD      2
 UBDSV06 SAVING      EXT-OUTFLOW IN MODEL EXPERIMENTAL     PACKAGE SFR             CONNECTED TO MODEL EXPERIMENTAL     PACKAGE SFR              ON UNIT   1015 AT TIME STEP     32, STRESS PERIOD      2
 UBDSV06 SAVING          STORAGE IN MODEL EXPERIMENTAL     PACKAGE SFR             CONNECTED TO MODEL EXPERIMENTAL     PACKAGE SFR              ON UNIT   1015 AT TIME STEP     32, STRESS PERIOD      2

 HEAD WILL BE SAVED ON UNIT 1020 AT END OF TIME STEP   32, STRESS PERIOD    2

end timestep


start timestep kper="2" kstp="33" mode="normal"

 UBDSV1 SAVING           STO-SS ON UNIT   1019 AT TIME STEP     33, STRESS PERIOD      2
 UBDSV1 SAVING           STO-SY ON UNIT   1019 AT TIME STEP     33, STRESS PERIOD      2
 UBDSV1 SAVING     FLOW-JA-FACE ON UNIT   1019 AT TIME STEP     33, STRESS PERIOD      2
 UBDSV06 SAVING              GHB IN MODEL EXPERIMENTAL     PACKAGE EXPERIMENTAL    CONNECTED TO MODEL EXPERIMENTAL     PACKAGE GHB              ON UNIT   1019 AT TIME STEP     33, STRESS PERIOD      2
 UBDSV06 SAVING              RCH IN MODEL EXPERIMENTAL     PACKAGE EXPERIMENTAL    CONNECTED TO MODEL EXPERIMENTAL     PACKAGE RCH              ON UNIT   1019 AT TIME STEP     33, STRESS PERIOD      2
 UBDSV06 SAVING              SFR IN MODEL EXPERIMENTAL     PACKAGE EXPERIMENTAL    CONNECTED TO MODEL EXPERIMENTAL     PACKAGE SFR              ON UNIT   1019 AT TIME STEP     33, STRESS PERIOD      2
 UBDSV06 SAVING     FLOW-JA-FACE IN MODEL EXPERIMENTAL     PACKAGE SFR             CONNECTED TO MODEL EXPERIMENTAL     PACKAGE SFR              ON UNIT   1015 AT TIME STEP     33, STRESS PERIOD      2
 UBDSV06 SAVING              GWF IN MODEL EXPERIMENTAL     PACKAGE SFR             CONNECTED TO MODEL EXPERIMENTAL     PACKAGE EXPERIMENTAL     ON UNIT   1015 AT TIME STEP     33, STRESS PERIOD      2
 UBDSV06 SAVING         RAINFALL IN MODEL EXPERIMENTAL     PACKAGE SFR             CONNECTED TO MODEL EXPERIMENTAL     PACKAGE SFR              ON UNIT   1015 AT TIME STEP     33, STRESS PERIOD      2
 UBDSV06 SAVING      EVAPORATION IN MODEL EXPERIMENTAL     PACKAGE SFR             CONNECTED TO MODEL EXPERIMENTAL     PACKAGE SFR              ON UNIT   1015 AT TIME STEP     33, STRESS PERIOD      2
 UBDSV06 SAVING           RUNOFF IN MODEL EXPERIMENTAL     PACKAGE SFR             CONNECTED TO MODEL EXPERIMENTAL     PACKAGE SFR              ON UNIT   1015 AT TIME STEP     33, STRESS PERIOD      2
 UBDSV06 SAVING       EXT-INFLOW IN MODEL EXPERIMENTAL     PACKAGE SFR             CONNECTED TO MODEL EXPERIMENTAL     PACKAGE SFR              ON UNIT   1015 AT TIME STEP     33, STRESS PERIOD      2
 UBDSV06 SAVING      EXT-OUTFLOW IN MODEL EXPERIMENTAL     PACKAGE SFR             CONNECTED TO MODEL EXPERIMENTAL     PACKAGE SFR              ON UNIT   1015 AT TIME STEP     33, STRESS PERIOD      2
 UBDSV06 SAVING          STORAGE IN MODEL EXPERIMENTAL     PACKAGE SFR             CONNECTED TO MODEL EXPERIMENTAL     PACKAGE SFR              ON UNIT   1015 AT TIME STEP     33, STRESS PERIOD      2

 HEAD WILL BE SAVED ON UNIT 1020 AT END OF TIME STEP   33, STRESS PERIOD    2

end timestep


start timestep kper="2" kstp="34" mode="normal"

 UBDSV1 SAVING           STO-SS ON UNIT   1019 AT TIME STEP     34, STRESS PERIOD      2
 UBDSV1 SAVING           STO-SY ON UNIT   1019 AT TIME STEP     34, STRESS PERIOD      2
 UBDSV1 SAVING     FLOW-JA-FACE ON UNIT   1019 AT TIME STEP     34, STRESS PERIOD      2
 UBDSV06 SAVING              GHB IN MODEL EXPERIMENTAL     PACKAGE EXPERIMENTAL    CONNECTED TO MODEL EXPERIMENTAL     PACKAGE GHB              ON UNIT   1019 AT TIME STEP     34, STRESS PERIOD      2
 UBDSV06 SAVING              RCH IN MODEL EXPERIMENTAL     PACKAGE EXPERIMENTAL    CONNECTED TO MODEL EXPERIMENTAL     PACKAGE RCH              ON UNIT   1019 AT TIME STEP     34, STRESS PERIOD      2
 UBDSV06 SAVING              SFR IN MODEL EXPERIMENTAL     PACKAGE EXPERIMENTAL    CONNECTED TO MODEL EXPERIMENTAL     PACKAGE SFR              ON UNIT   1019 AT TIME STEP     34, STRESS PERIOD      2
 UBDSV06 SAVING     FLOW-JA-FACE IN MODEL EXPERIMENTAL     PACKAGE SFR             CONNECTED TO MODEL EXPERIMENTAL     PACKAGE SFR              ON UNIT   1015 AT TIME STEP     34, STRESS PERIOD      2
 UBDSV06 SAVING              GWF IN MODEL EXPERIMENTAL     PACKAGE SFR             CONNECTED TO MODEL EXPERIMENTAL     PACKAGE EXPERIMENTAL     ON UNIT   1015 AT TIME STEP     34, STRESS PERIOD      2
 UBDSV06 SAVING         RAINFALL IN MODEL EXPERIMENTAL     PACKAGE SFR             CONNECTED TO MODEL EXPERIMENTAL     PACKAGE SFR              ON UNIT   1015 AT TIME STEP     34, STRESS PERIOD      2
 UBDSV06 SAVING      EVAPORATION IN MODEL EXPERIMENTAL     PACKAGE SFR             CONNECTED TO MODEL EXPERIMENTAL     PACKAGE SFR              ON UNIT   1015 AT TIME STEP     34, STRESS PERIOD      2
 UBDSV06 SAVING           RUNOFF IN MODEL EXPERIMENTAL     PACKAGE SFR             CONNECTED TO MODEL EXPERIMENTAL     PACKAGE SFR              ON UNIT   1015 AT TIME STEP     34, STRESS PERIOD      2
 UBDSV06 SAVING       EXT-INFLOW IN MODEL EXPERIMENTAL     PACKAGE SFR             CONNECTED TO MODEL EXPERIMENTAL     PACKAGE SFR              ON UNIT   1015 AT TIME STEP     34, STRESS PERIOD      2
 UBDSV06 SAVING      EXT-OUTFLOW IN MODEL EXPERIMENTAL     PACKAGE SFR             CONNECTED TO MODEL EXPERIMENTAL     PACKAGE SFR              ON UNIT   1015 AT TIME STEP     34, STRESS PERIOD      2
 UBDSV06 SAVING          STORAGE IN MODEL EXPERIMENTAL     PACKAGE SFR             CONNECTED TO MODEL EXPERIMENTAL     PACKAGE SFR              ON UNIT   1015 AT TIME STEP     34, STRESS PERIOD      2

 HEAD WILL BE SAVED ON UNIT 1020 AT END OF TIME STEP   34, STRESS PERIOD    2

end timestep


start timestep kper="2" kstp="35" mode="normal"

 UBDSV1 SAVING           STO-SS ON UNIT   1019 AT TIME STEP     35, STRESS PERIOD      2
 UBDSV1 SAVING           STO-SY ON UNIT   1019 AT TIME STEP     35, STRESS PERIOD      2
 UBDSV1 SAVING     FLOW-JA-FACE ON UNIT   1019 AT TIME STEP     35, STRESS PERIOD      2
 UBDSV06 SAVING              GHB IN MODEL EXPERIMENTAL     PACKAGE EXPERIMENTAL    CONNECTED TO MODEL EXPERIMENTAL     PACKAGE GHB              ON UNIT   1019 AT TIME STEP     35, STRESS PERIOD      2
 UBDSV06 SAVING              RCH IN MODEL EXPERIMENTAL     PACKAGE EXPERIMENTAL    CONNECTED TO MODEL EXPERIMENTAL     PACKAGE RCH              ON UNIT   1019 AT TIME STEP     35, STRESS PERIOD      2
 UBDSV06 SAVING              SFR IN MODEL EXPERIMENTAL     PACKAGE EXPERIMENTAL    CONNECTED TO MODEL EXPERIMENTAL     PACKAGE SFR              ON UNIT   1019 AT TIME STEP     35, STRESS PERIOD      2
 UBDSV06 SAVING     FLOW-JA-FACE IN MODEL EXPERIMENTAL     PACKAGE SFR             CONNECTED TO MODEL EXPERIMENTAL     PACKAGE SFR              ON UNIT   1015 AT TIME STEP     35, STRESS PERIOD      2
 UBDSV06 SAVING              GWF IN MODEL EXPERIMENTAL     PACKAGE SFR             CONNECTED TO MODEL EXPERIMENTAL     PACKAGE EXPERIMENTAL     ON UNIT   1015 AT TIME STEP     35, STRESS PERIOD      2
 UBDSV06 SAVING         RAINFALL IN MODEL EXPERIMENTAL     PACKAGE SFR             CONNECTED TO MODEL EXPERIMENTAL     PACKAGE SFR              ON UNIT   1015 AT TIME STEP     35, STRESS PERIOD      2
 UBDSV06 SAVING      EVAPORATION IN MODEL EXPERIMENTAL     PACKAGE SFR             CONNECTED TO MODEL EXPERIMENTAL     PACKAGE SFR              ON UNIT   1015 AT TIME STEP     35, STRESS PERIOD      2
 UBDSV06 SAVING           RUNOFF IN MODEL EXPERIMENTAL     PACKAGE SFR             CONNECTED TO MODEL EXPERIMENTAL     PACKAGE SFR              ON UNIT   1015 AT TIME STEP     35, STRESS PERIOD      2
 UBDSV06 SAVING       EXT-INFLOW IN MODEL EXPERIMENTAL     PACKAGE SFR             CONNECTED TO MODEL EXPERIMENTAL     PACKAGE SFR              ON UNIT   1015 AT TIME STEP     35, STRESS PERIOD      2
 UBDSV06 SAVING      EXT-OUTFLOW IN MODEL EXPERIMENTAL     PACKAGE SFR             CONNECTED TO MODEL EXPERIMENTAL     PACKAGE SFR              ON UNIT   1015 AT TIME STEP     35, STRESS PERIOD      2
 UBDSV06 SAVING          STORAGE IN MODEL EXPERIMENTAL     PACKAGE SFR             CONNECTED TO MODEL EXPERIMENTAL     PACKAGE SFR              ON UNIT   1015 AT TIME STEP     35, STRESS PERIOD      2

 HEAD WILL BE SAVED ON UNIT 1020 AT END OF TIME STEP   35, STRESS PERIOD    2

end timestep


start timestep kper="2" kstp="36" mode="normal"

 UBDSV1 SAVING           STO-SS ON UNIT   1019 AT TIME STEP     36, STRESS PERIOD      2
 UBDSV1 SAVING           STO-SY ON UNIT   1019 AT TIME STEP     36, STRESS PERIOD      2
 UBDSV1 SAVING     FLOW-JA-FACE ON UNIT   1019 AT TIME STEP     36, STRESS PERIOD      2
 UBDSV06 SAVING              GHB IN MODEL EXPERIMENTAL     PACKAGE EXPERIMENTAL    CONNECTED TO MODEL EXPERIMENTAL     PACKAGE GHB              ON UNIT   1019 AT TIME STEP     36, STRESS PERIOD      2
 UBDSV06 SAVING              RCH IN MODEL EXPERIMENTAL     PACKAGE EXPERIMENTAL    CONNECTED TO MODEL EXPERIMENTAL     PACKAGE RCH              ON UNIT   1019 AT TIME STEP     36, STRESS PERIOD      2
 UBDSV06 SAVING              SFR IN MODEL EXPERIMENTAL     PACKAGE EXPERIMENTAL    CONNECTED TO MODEL EXPERIMENTAL     PACKAGE SFR              ON UNIT   1019 AT TIME STEP     36, STRESS PERIOD      2
 UBDSV06 SAVING     FLOW-JA-FACE IN MODEL EXPERIMENTAL     PACKAGE SFR             CONNECTED TO MODEL EXPERIMENTAL     PACKAGE SFR              ON UNIT   1015 AT TIME STEP     36, STRESS PERIOD      2
 UBDSV06 SAVING              GWF IN MODEL EXPERIMENTAL     PACKAGE SFR             CONNECTED TO MODEL EXPERIMENTAL     PACKAGE EXPERIMENTAL     ON UNIT   1015 AT TIME STEP     36, STRESS PERIOD      2
 UBDSV06 SAVING         RAINFALL IN MODEL EXPERIMENTAL     PACKAGE SFR             CONNECTED TO MODEL EXPERIMENTAL     PACKAGE SFR              ON UNIT   1015 AT TIME STEP     36, STRESS PERIOD      2
 UBDSV06 SAVING      EVAPORATION IN MODEL EXPERIMENTAL     PACKAGE SFR             CONNECTED TO MODEL EXPERIMENTAL     PACKAGE SFR              ON UNIT   1015 AT TIME STEP     36, STRESS PERIOD      2
 UBDSV06 SAVING           RUNOFF IN MODEL EXPERIMENTAL     PACKAGE SFR             CONNECTED TO MODEL EXPERIMENTAL     PACKAGE SFR              ON UNIT   1015 AT TIME STEP     36, STRESS PERIOD      2
 UBDSV06 SAVING       EXT-INFLOW IN MODEL EXPERIMENTAL     PACKAGE SFR             CONNECTED TO MODEL EXPERIMENTAL     PACKAGE SFR              ON UNIT   1015 AT TIME STEP     36, STRESS PERIOD      2
 UBDSV06 SAVING      EXT-OUTFLOW IN MODEL EXPERIMENTAL     PACKAGE SFR             CONNECTED TO MODEL EXPERIMENTAL     PACKAGE SFR              ON UNIT   1015 AT TIME STEP     36, STRESS PERIOD      2
 UBDSV06 SAVING          STORAGE IN MODEL EXPERIMENTAL     PACKAGE SFR             CONNECTED TO MODEL EXPERIMENTAL     PACKAGE SFR              ON UNIT   1015 AT TIME STEP     36, STRESS PERIOD      2

 HEAD WILL BE SAVED ON UNIT 1020 AT END OF TIME STEP   36, STRESS PERIOD    2

end timestep


start timestep kper="2" kstp="37" mode="normal"

 UBDSV1 SAVING           STO-SS ON UNIT   1019 AT TIME STEP     37, STRESS PERIOD      2
 UBDSV1 SAVING           STO-SY ON UNIT   1019 AT TIME STEP     37, STRESS PERIOD      2
 UBDSV1 SAVING     FLOW-JA-FACE ON UNIT   1019 AT TIME STEP     37, STRESS PERIOD      2
 UBDSV06 SAVING              GHB IN MODEL EXPERIMENTAL     PACKAGE EXPERIMENTAL    CONNECTED TO MODEL EXPERIMENTAL     PACKAGE GHB              ON UNIT   1019 AT TIME STEP     37, STRESS PERIOD      2
 UBDSV06 SAVING              RCH IN MODEL EXPERIMENTAL     PACKAGE EXPERIMENTAL    CONNECTED TO MODEL EXPERIMENTAL     PACKAGE RCH              ON UNIT   1019 AT TIME STEP     37, STRESS PERIOD      2
 UBDSV06 SAVING              SFR IN MODEL EXPERIMENTAL     PACKAGE EXPERIMENTAL    CONNECTED TO MODEL EXPERIMENTAL     PACKAGE SFR              ON UNIT   1019 AT TIME STEP     37, STRESS PERIOD      2
 UBDSV06 SAVING     FLOW-JA-FACE IN MODEL EXPERIMENTAL     PACKAGE SFR             CONNECTED TO MODEL EXPERIMENTAL     PACKAGE SFR              ON UNIT   1015 AT TIME STEP     37, STRESS PERIOD      2
 UBDSV06 SAVING              GWF IN MODEL EXPERIMENTAL     PACKAGE SFR             CONNECTED TO MODEL EXPERIMENTAL     PACKAGE EXPERIMENTAL     ON UNIT   1015 AT TIME STEP     37, STRESS PERIOD      2
 UBDSV06 SAVING         RAINFALL IN MODEL EXPERIMENTAL     PACKAGE SFR             CONNECTED TO MODEL EXPERIMENTAL     PACKAGE SFR              ON UNIT   1015 AT TIME STEP     37, STRESS PERIOD      2
 UBDSV06 SAVING      EVAPORATION IN MODEL EXPERIMENTAL     PACKAGE SFR             CONNECTED TO MODEL EXPERIMENTAL     PACKAGE SFR              ON UNIT   1015 AT TIME STEP     37, STRESS PERIOD      2
 UBDSV06 SAVING           RUNOFF IN MODEL EXPERIMENTAL     PACKAGE SFR             CONNECTED TO MODEL EXPERIMENTAL     PACKAGE SFR              ON UNIT   1015 AT TIME STEP     37, STRESS PERIOD      2
 UBDSV06 SAVING       EXT-INFLOW IN MODEL EXPERIMENTAL     PACKAGE SFR             CONNECTED TO MODEL EXPERIMENTAL     PACKAGE SFR              ON UNIT   1015 AT TIME STEP     37, STRESS PERIOD      2
 UBDSV06 SAVING      EXT-OUTFLOW IN MODEL EXPERIMENTAL     PACKAGE SFR             CONNECTED TO MODEL EXPERIMENTAL     PACKAGE SFR              ON UNIT   1015 AT TIME STEP     37, STRESS PERIOD      2
 UBDSV06 SAVING          STORAGE IN MODEL EXPERIMENTAL     PACKAGE SFR             CONNECTED TO MODEL EXPERIMENTAL     PACKAGE SFR              ON UNIT   1015 AT TIME STEP     37, STRESS PERIOD      2

 HEAD WILL BE SAVED ON UNIT 1020 AT END OF TIME STEP   37, STRESS PERIOD    2

end timestep


start timestep kper="2" kstp="38" mode="normal"

 UBDSV1 SAVING           STO-SS ON UNIT   1019 AT TIME STEP     38, STRESS PERIOD      2
 UBDSV1 SAVING           STO-SY ON UNIT   1019 AT TIME STEP     38, STRESS PERIOD      2
 UBDSV1 SAVING     FLOW-JA-FACE ON UNIT   1019 AT TIME STEP     38, STRESS PERIOD      2
 UBDSV06 SAVING              GHB IN MODEL EXPERIMENTAL     PACKAGE EXPERIMENTAL    CONNECTED TO MODEL EXPERIMENTAL     PACKAGE GHB              ON UNIT   1019 AT TIME STEP     38, STRESS PERIOD      2
 UBDSV06 SAVING              RCH IN MODEL EXPERIMENTAL     PACKAGE EXPERIMENTAL    CONNECTED TO MODEL EXPERIMENTAL     PACKAGE RCH              ON UNIT   1019 AT TIME STEP     38, STRESS PERIOD      2
 UBDSV06 SAVING              SFR IN MODEL EXPERIMENTAL     PACKAGE EXPERIMENTAL    CONNECTED TO MODEL EXPERIMENTAL     PACKAGE SFR              ON UNIT   1019 AT TIME STEP     38, STRESS PERIOD      2
 UBDSV06 SAVING     FLOW-JA-FACE IN MODEL EXPERIMENTAL     PACKAGE SFR             CONNECTED TO MODEL EXPERIMENTAL     PACKAGE SFR              ON UNIT   1015 AT TIME STEP     38, STRESS PERIOD      2
 UBDSV06 SAVING              GWF IN MODEL EXPERIMENTAL     PACKAGE SFR             CONNECTED TO MODEL EXPERIMENTAL     PACKAGE EXPERIMENTAL     ON UNIT   1015 AT TIME STEP     38, STRESS PERIOD      2
 UBDSV06 SAVING         RAINFALL IN MODEL EXPERIMENTAL     PACKAGE SFR             CONNECTED TO MODEL EXPERIMENTAL     PACKAGE SFR              ON UNIT   1015 AT TIME STEP     38, STRESS PERIOD      2
 UBDSV06 SAVING      EVAPORATION IN MODEL EXPERIMENTAL     PACKAGE SFR             CONNECTED TO MODEL EXPERIMENTAL     PACKAGE SFR              ON UNIT   1015 AT TIME STEP     38, STRESS PERIOD      2
 UBDSV06 SAVING           RUNOFF IN MODEL EXPERIMENTAL     PACKAGE SFR             CONNECTED TO MODEL EXPERIMENTAL     PACKAGE SFR              ON UNIT   1015 AT TIME STEP     38, STRESS PERIOD      2
 UBDSV06 SAVING       EXT-INFLOW IN MODEL EXPERIMENTAL     PACKAGE SFR             CONNECTED TO MODEL EXPERIMENTAL     PACKAGE SFR              ON UNIT   1015 AT TIME STEP     38, STRESS PERIOD      2
 UBDSV06 SAVING      EXT-OUTFLOW IN MODEL EXPERIMENTAL     PACKAGE SFR             CONNECTED TO MODEL EXPERIMENTAL     PACKAGE SFR              ON UNIT   1015 AT TIME STEP     38, STRESS PERIOD      2
 UBDSV06 SAVING          STORAGE IN MODEL EXPERIMENTAL     PACKAGE SFR             CONNECTED TO MODEL EXPERIMENTAL     PACKAGE SFR              ON UNIT   1015 AT TIME STEP     38, STRESS PERIOD      2

 HEAD WILL BE SAVED ON UNIT 1020 AT END OF TIME STEP   38, STRESS PERIOD    2

end timestep


start timestep kper="2" kstp="39" mode="normal"

 UBDSV1 SAVING           STO-SS ON UNIT   1019 AT TIME STEP     39, STRESS PERIOD      2
 UBDSV1 SAVING           STO-SY ON UNIT   1019 AT TIME STEP     39, STRESS PERIOD      2
 UBDSV1 SAVING     FLOW-JA-FACE ON UNIT   1019 AT TIME STEP     39, STRESS PERIOD      2
 UBDSV06 SAVING              GHB IN MODEL EXPERIMENTAL     PACKAGE EXPERIMENTAL    CONNECTED TO MODEL EXPERIMENTAL     PACKAGE GHB              ON UNIT   1019 AT TIME STEP     39, STRESS PERIOD      2
 UBDSV06 SAVING              RCH IN MODEL EXPERIMENTAL     PACKAGE EXPERIMENTAL    CONNECTED TO MODEL EXPERIMENTAL     PACKAGE RCH              ON UNIT   1019 AT TIME STEP     39, STRESS PERIOD      2
 UBDSV06 SAVING              SFR IN MODEL EXPERIMENTAL     PACKAGE EXPERIMENTAL    CONNECTED TO MODEL EXPERIMENTAL     PACKAGE SFR              ON UNIT   1019 AT TIME STEP     39, STRESS PERIOD      2
 UBDSV06 SAVING     FLOW-JA-FACE IN MODEL EXPERIMENTAL     PACKAGE SFR             CONNECTED TO MODEL EXPERIMENTAL     PACKAGE SFR              ON UNIT   1015 AT TIME STEP     39, STRESS PERIOD      2
 UBDSV06 SAVING              GWF IN MODEL EXPERIMENTAL     PACKAGE SFR             CONNECTED TO MODEL EXPERIMENTAL     PACKAGE EXPERIMENTAL     ON UNIT   1015 AT TIME STEP     39, STRESS PERIOD      2
 UBDSV06 SAVING         RAINFALL IN MODEL EXPERIMENTAL     PACKAGE SFR             CONNECTED TO MODEL EXPERIMENTAL     PACKAGE SFR              ON UNIT   1015 AT TIME STEP     39, STRESS PERIOD      2
 UBDSV06 SAVING      EVAPORATION IN MODEL EXPERIMENTAL     PACKAGE SFR             CONNECTED TO MODEL EXPERIMENTAL     PACKAGE SFR              ON UNIT   1015 AT TIME STEP     39, STRESS PERIOD      2
 UBDSV06 SAVING           RUNOFF IN MODEL EXPERIMENTAL     PACKAGE SFR             CONNECTED TO MODEL EXPERIMENTAL     PACKAGE SFR              ON UNIT   1015 AT TIME STEP     39, STRESS PERIOD      2
 UBDSV06 SAVING       EXT-INFLOW IN MODEL EXPERIMENTAL     PACKAGE SFR             CONNECTED TO MODEL EXPERIMENTAL     PACKAGE SFR              ON UNIT   1015 AT TIME STEP     39, STRESS PERIOD      2
 UBDSV06 SAVING      EXT-OUTFLOW IN MODEL EXPERIMENTAL     PACKAGE SFR             CONNECTED TO MODEL EXPERIMENTAL     PACKAGE SFR              ON UNIT   1015 AT TIME STEP     39, STRESS PERIOD      2
 UBDSV06 SAVING          STORAGE IN MODEL EXPERIMENTAL     PACKAGE SFR             CONNECTED TO MODEL EXPERIMENTAL     PACKAGE SFR              ON UNIT   1015 AT TIME STEP     39, STRESS PERIOD      2

 HEAD WILL BE SAVED ON UNIT 1020 AT END OF TIME STEP   39, STRESS PERIOD    2

end timestep


start timestep kper="2" kstp="40" mode="normal"

 UBDSV1 SAVING           STO-SS ON UNIT   1019 AT TIME STEP     40, STRESS PERIOD      2
 UBDSV1 SAVING           STO-SY ON UNIT   1019 AT TIME STEP     40, STRESS PERIOD      2
 UBDSV1 SAVING     FLOW-JA-FACE ON UNIT   1019 AT TIME STEP     40, STRESS PERIOD      2
 UBDSV06 SAVING              GHB IN MODEL EXPERIMENTAL     PACKAGE EXPERIMENTAL    CONNECTED TO MODEL EXPERIMENTAL     PACKAGE GHB              ON UNIT   1019 AT TIME STEP     40, STRESS PERIOD      2
 UBDSV06 SAVING              RCH IN MODEL EXPERIMENTAL     PACKAGE EXPERIMENTAL    CONNECTED TO MODEL EXPERIMENTAL     PACKAGE RCH              ON UNIT   1019 AT TIME STEP     40, STRESS PERIOD      2
 UBDSV06 SAVING              SFR IN MODEL EXPERIMENTAL     PACKAGE EXPERIMENTAL    CONNECTED TO MODEL EXPERIMENTAL     PACKAGE SFR              ON UNIT   1019 AT TIME STEP     40, STRESS PERIOD      2
 UBDSV06 SAVING     FLOW-JA-FACE IN MODEL EXPERIMENTAL     PACKAGE SFR             CONNECTED TO MODEL EXPERIMENTAL     PACKAGE SFR              ON UNIT   1015 AT TIME STEP     40, STRESS PERIOD      2
 UBDSV06 SAVING              GWF IN MODEL EXPERIMENTAL     PACKAGE SFR             CONNECTED TO MODEL EXPERIMENTAL     PACKAGE EXPERIMENTAL     ON UNIT   1015 AT TIME STEP     40, STRESS PERIOD      2
 UBDSV06 SAVING         RAINFALL IN MODEL EXPERIMENTAL     PACKAGE SFR             CONNECTED TO MODEL EXPERIMENTAL     PACKAGE SFR              ON UNIT   1015 AT TIME STEP     40, STRESS PERIOD      2
 UBDSV06 SAVING      EVAPORATION IN MODEL EXPERIMENTAL     PACKAGE SFR             CONNECTED TO MODEL EXPERIMENTAL     PACKAGE SFR              ON UNIT   1015 AT TIME STEP     40, STRESS PERIOD      2
 UBDSV06 SAVING           RUNOFF IN MODEL EXPERIMENTAL     PACKAGE SFR             CONNECTED TO MODEL EXPERIMENTAL     PACKAGE SFR              ON UNIT   1015 AT TIME STEP     40, STRESS PERIOD      2
 UBDSV06 SAVING       EXT-INFLOW IN MODEL EXPERIMENTAL     PACKAGE SFR             CONNECTED TO MODEL EXPERIMENTAL     PACKAGE SFR              ON UNIT   1015 AT TIME STEP     40, STRESS PERIOD      2
 UBDSV06 SAVING      EXT-OUTFLOW IN MODEL EXPERIMENTAL     PACKAGE SFR             CONNECTED TO MODEL EXPERIMENTAL     PACKAGE SFR              ON UNIT   1015 AT TIME STEP     40, STRESS PERIOD      2
 UBDSV06 SAVING          STORAGE IN MODEL EXPERIMENTAL     PACKAGE SFR             CONNECTED TO MODEL EXPERIMENTAL     PACKAGE SFR              ON UNIT   1015 AT TIME STEP     40, STRESS PERIOD      2

 HEAD WILL BE SAVED ON UNIT 1020 AT END OF TIME STEP   40, STRESS PERIOD    2

end timestep


start timestep kper="2" kstp="41" mode="normal"

 UBDSV1 SAVING           STO-SS ON UNIT   1019 AT TIME STEP     41, STRESS PERIOD      2
 UBDSV1 SAVING           STO-SY ON UNIT   1019 AT TIME STEP     41, STRESS PERIOD      2
 UBDSV1 SAVING     FLOW-JA-FACE ON UNIT   1019 AT TIME STEP     41, STRESS PERIOD      2
 UBDSV06 SAVING              GHB IN MODEL EXPERIMENTAL     PACKAGE EXPERIMENTAL    CONNECTED TO MODEL EXPERIMENTAL     PACKAGE GHB              ON UNIT   1019 AT TIME STEP     41, STRESS PERIOD      2
 UBDSV06 SAVING              RCH IN MODEL EXPERIMENTAL     PACKAGE EXPERIMENTAL    CONNECTED TO MODEL EXPERIMENTAL     PACKAGE RCH              ON UNIT   1019 AT TIME STEP     41, STRESS PERIOD      2
 UBDSV06 SAVING              SFR IN MODEL EXPERIMENTAL     PACKAGE EXPERIMENTAL    CONNECTED TO MODEL EXPERIMENTAL     PACKAGE SFR              ON UNIT   1019 AT TIME STEP     41, STRESS PERIOD      2
 UBDSV06 SAVING     FLOW-JA-FACE IN MODEL EXPERIMENTAL     PACKAGE SFR             CONNECTED TO MODEL EXPERIMENTAL     PACKAGE SFR              ON UNIT   1015 AT TIME STEP     41, STRESS PERIOD      2
 UBDSV06 SAVING              GWF IN MODEL EXPERIMENTAL     PACKAGE SFR             CONNECTED TO MODEL EXPERIMENTAL     PACKAGE EXPERIMENTAL     ON UNIT   1015 AT TIME STEP     41, STRESS PERIOD      2
 UBDSV06 SAVING         RAINFALL IN MODEL EXPERIMENTAL     PACKAGE SFR             CONNECTED TO MODEL EXPERIMENTAL     PACKAGE SFR              ON UNIT   1015 AT TIME STEP     41, STRESS PERIOD      2
 UBDSV06 SAVING      EVAPORATION IN MODEL EXPERIMENTAL     PACKAGE SFR             CONNECTED TO MODEL EXPERIMENTAL     PACKAGE SFR              ON UNIT   1015 AT TIME STEP     41, STRESS PERIOD      2
 UBDSV06 SAVING           RUNOFF IN MODEL EXPERIMENTAL     PACKAGE SFR             CONNECTED TO MODEL EXPERIMENTAL     PACKAGE SFR              ON UNIT   1015 AT TIME STEP     41, STRESS PERIOD      2
 UBDSV06 SAVING       EXT-INFLOW IN MODEL EXPERIMENTAL     PACKAGE SFR             CONNECTED TO MODEL EXPERIMENTAL     PACKAGE SFR              ON UNIT   1015 AT TIME STEP     41, STRESS PERIOD      2
 UBDSV06 SAVING      EXT-OUTFLOW IN MODEL EXPERIMENTAL     PACKAGE SFR             CONNECTED TO MODEL EXPERIMENTAL     PACKAGE SFR              ON UNIT   1015 AT TIME STEP     41, STRESS PERIOD      2
 UBDSV06 SAVING          STORAGE IN MODEL EXPERIMENTAL     PACKAGE SFR             CONNECTED TO MODEL EXPERIMENTAL     PACKAGE SFR              ON UNIT   1015 AT TIME STEP     41, STRESS PERIOD      2

 HEAD WILL BE SAVED ON UNIT 1020 AT END OF TIME STEP   41, STRESS PERIOD    2

end timestep


start timestep kper="2" kstp="42" mode="normal"

 UBDSV1 SAVING           STO-SS ON UNIT   1019 AT TIME STEP     42, STRESS PERIOD      2
 UBDSV1 SAVING           STO-SY ON UNIT   1019 AT TIME STEP     42, STRESS PERIOD      2
 UBDSV1 SAVING     FLOW-JA-FACE ON UNIT   1019 AT TIME STEP     42, STRESS PERIOD      2
 UBDSV06 SAVING              GHB IN MODEL EXPERIMENTAL     PACKAGE EXPERIMENTAL    CONNECTED TO MODEL EXPERIMENTAL     PACKAGE GHB              ON UNIT   1019 AT TIME STEP     42, STRESS PERIOD      2
 UBDSV06 SAVING              RCH IN MODEL EXPERIMENTAL     PACKAGE EXPERIMENTAL    CONNECTED TO MODEL EXPERIMENTAL     PACKAGE RCH              ON UNIT   1019 AT TIME STEP     42, STRESS PERIOD      2
 UBDSV06 SAVING              SFR IN MODEL EXPERIMENTAL     PACKAGE EXPERIMENTAL    CONNECTED TO MODEL EXPERIMENTAL     PACKAGE SFR              ON UNIT   1019 AT TIME STEP     42, STRESS PERIOD      2
 UBDSV06 SAVING     FLOW-JA-FACE IN MODEL EXPERIMENTAL     PACKAGE SFR             CONNECTED TO MODEL EXPERIMENTAL     PACKAGE SFR              ON UNIT   1015 AT TIME STEP     42, STRESS PERIOD      2
 UBDSV06 SAVING              GWF IN MODEL EXPERIMENTAL     PACKAGE SFR             CONNECTED TO MODEL EXPERIMENTAL     PACKAGE EXPERIMENTAL     ON UNIT   1015 AT TIME STEP     42, STRESS PERIOD      2
 UBDSV06 SAVING         RAINFALL IN MODEL EXPERIMENTAL     PACKAGE SFR             CONNECTED TO MODEL EXPERIMENTAL     PACKAGE SFR              ON UNIT   1015 AT TIME STEP     42, STRESS PERIOD      2
 UBDSV06 SAVING      EVAPORATION IN MODEL EXPERIMENTAL     PACKAGE SFR             CONNECTED TO MODEL EXPERIMENTAL     PACKAGE SFR              ON UNIT   1015 AT TIME STEP     42, STRESS PERIOD      2
 UBDSV06 SAVING           RUNOFF IN MODEL EXPERIMENTAL     PACKAGE SFR             CONNECTED TO MODEL EXPERIMENTAL     PACKAGE SFR              ON UNIT   1015 AT TIME STEP     42, STRESS PERIOD      2
 UBDSV06 SAVING       EXT-INFLOW IN MODEL EXPERIMENTAL     PACKAGE SFR             CONNECTED TO MODEL EXPERIMENTAL     PACKAGE SFR              ON UNIT   1015 AT TIME STEP     42, STRESS PERIOD      2
 UBDSV06 SAVING      EXT-OUTFLOW IN MODEL EXPERIMENTAL     PACKAGE SFR             CONNECTED TO MODEL EXPERIMENTAL     PACKAGE SFR              ON UNIT   1015 AT TIME STEP     42, STRESS PERIOD      2
 UBDSV06 SAVING          STORAGE IN MODEL EXPERIMENTAL     PACKAGE SFR             CONNECTED TO MODEL EXPERIMENTAL     PACKAGE SFR              ON UNIT   1015 AT TIME STEP     42, STRESS PERIOD      2

 HEAD WILL BE SAVED ON UNIT 1020 AT END OF TIME STEP   42, STRESS PERIOD    2

end timestep


start timestep kper="2" kstp="43" mode="normal"

 UBDSV1 SAVING           STO-SS ON UNIT   1019 AT TIME STEP     43, STRESS PERIOD      2
 UBDSV1 SAVING           STO-SY ON UNIT   1019 AT TIME STEP     43, STRESS PERIOD      2
 UBDSV1 SAVING     FLOW-JA-FACE ON UNIT   1019 AT TIME STEP     43, STRESS PERIOD      2
 UBDSV06 SAVING              GHB IN MODEL EXPERIMENTAL     PACKAGE EXPERIMENTAL    CONNECTED TO MODEL EXPERIMENTAL     PACKAGE GHB              ON UNIT   1019 AT TIME STEP     43, STRESS PERIOD      2
 UBDSV06 SAVING              RCH IN MODEL EXPERIMENTAL     PACKAGE EXPERIMENTAL    CONNECTED TO MODEL EXPERIMENTAL     PACKAGE RCH              ON UNIT   1019 AT TIME STEP     43, STRESS PERIOD      2
 UBDSV06 SAVING              SFR IN MODEL EXPERIMENTAL     PACKAGE EXPERIMENTAL    CONNECTED TO MODEL EXPERIMENTAL     PACKAGE SFR              ON UNIT   1019 AT TIME STEP     43, STRESS PERIOD      2
 UBDSV06 SAVING     FLOW-JA-FACE IN MODEL EXPERIMENTAL     PACKAGE SFR             CONNECTED TO MODEL EXPERIMENTAL     PACKAGE SFR              ON UNIT   1015 AT TIME STEP     43, STRESS PERIOD      2
 UBDSV06 SAVING              GWF IN MODEL EXPERIMENTAL     PACKAGE SFR             CONNECTED TO MODEL EXPERIMENTAL     PACKAGE EXPERIMENTAL     ON UNIT   1015 AT TIME STEP     43, STRESS PERIOD      2
 UBDSV06 SAVING         RAINFALL IN MODEL EXPERIMENTAL     PACKAGE SFR             CONNECTED TO MODEL EXPERIMENTAL     PACKAGE SFR              ON UNIT   1015 AT TIME STEP     43, STRESS PERIOD      2
 UBDSV06 SAVING      EVAPORATION IN MODEL EXPERIMENTAL     PACKAGE SFR             CONNECTED TO MODEL EXPERIMENTAL     PACKAGE SFR              ON UNIT   1015 AT TIME STEP     43, STRESS PERIOD      2
 UBDSV06 SAVING           RUNOFF IN MODEL EXPERIMENTAL     PACKAGE SFR             CONNECTED TO MODEL EXPERIMENTAL     PACKAGE SFR              ON UNIT   1015 AT TIME STEP     43, STRESS PERIOD      2
 UBDSV06 SAVING       EXT-INFLOW IN MODEL EXPERIMENTAL     PACKAGE SFR             CONNECTED TO MODEL EXPERIMENTAL     PACKAGE SFR              ON UNIT   1015 AT TIME STEP     43, STRESS PERIOD      2
 UBDSV06 SAVING      EXT-OUTFLOW IN MODEL EXPERIMENTAL     PACKAGE SFR             CONNECTED TO MODEL EXPERIMENTAL     PACKAGE SFR              ON UNIT   1015 AT TIME STEP     43, STRESS PERIOD      2
 UBDSV06 SAVING          STORAGE IN MODEL EXPERIMENTAL     PACKAGE SFR             CONNECTED TO MODEL EXPERIMENTAL     PACKAGE SFR              ON UNIT   1015 AT TIME STEP     43, STRESS PERIOD      2

 HEAD WILL BE SAVED ON UNIT 1020 AT END OF TIME STEP   43, STRESS PERIOD    2

end timestep


start timestep kper="2" kstp="44" mode="normal"

 UBDSV1 SAVING           STO-SS ON UNIT   1019 AT TIME STEP     44, STRESS PERIOD      2
 UBDSV1 SAVING           STO-SY ON UNIT   1019 AT TIME STEP     44, STRESS PERIOD      2
 UBDSV1 SAVING     FLOW-JA-FACE ON UNIT   1019 AT TIME STEP     44, STRESS PERIOD      2
 UBDSV06 SAVING              GHB IN MODEL EXPERIMENTAL     PACKAGE EXPERIMENTAL    CONNECTED TO MODEL EXPERIMENTAL     PACKAGE GHB              ON UNIT   1019 AT TIME STEP     44, STRESS PERIOD      2
 UBDSV06 SAVING              RCH IN MODEL EXPERIMENTAL     PACKAGE EXPERIMENTAL    CONNECTED TO MODEL EXPERIMENTAL     PACKAGE RCH              ON UNIT   1019 AT TIME STEP     44, STRESS PERIOD      2
 UBDSV06 SAVING              SFR IN MODEL EXPERIMENTAL     PACKAGE EXPERIMENTAL    CONNECTED TO MODEL EXPERIMENTAL     PACKAGE SFR              ON UNIT   1019 AT TIME STEP     44, STRESS PERIOD      2
 UBDSV06 SAVING     FLOW-JA-FACE IN MODEL EXPERIMENTAL     PACKAGE SFR             CONNECTED TO MODEL EXPERIMENTAL     PACKAGE SFR              ON UNIT   1015 AT TIME STEP     44, STRESS PERIOD      2
 UBDSV06 SAVING              GWF IN MODEL EXPERIMENTAL     PACKAGE SFR             CONNECTED TO MODEL EXPERIMENTAL     PACKAGE EXPERIMENTAL     ON UNIT   1015 AT TIME STEP     44, STRESS PERIOD      2
 UBDSV06 SAVING         RAINFALL IN MODEL EXPERIMENTAL     PACKAGE SFR             CONNECTED TO MODEL EXPERIMENTAL     PACKAGE SFR              ON UNIT   1015 AT TIME STEP     44, STRESS PERIOD      2
 UBDSV06 SAVING      EVAPORATION IN MODEL EXPERIMENTAL     PACKAGE SFR             CONNECTED TO MODEL EXPERIMENTAL     PACKAGE SFR              ON UNIT   1015 AT TIME STEP     44, STRESS PERIOD      2
 UBDSV06 SAVING           RUNOFF IN MODEL EXPERIMENTAL     PACKAGE SFR             CONNECTED TO MODEL EXPERIMENTAL     PACKAGE SFR              ON UNIT   1015 AT TIME STEP     44, STRESS PERIOD      2
 UBDSV06 SAVING       EXT-INFLOW IN MODEL EXPERIMENTAL     PACKAGE SFR             CONNECTED TO MODEL EXPERIMENTAL     PACKAGE SFR              ON UNIT   1015 AT TIME STEP     44, STRESS PERIOD      2
 UBDSV06 SAVING      EXT-OUTFLOW IN MODEL EXPERIMENTAL     PACKAGE SFR             CONNECTED TO MODEL EXPERIMENTAL     PACKAGE SFR              ON UNIT   1015 AT TIME STEP     44, STRESS PERIOD      2
 UBDSV06 SAVING          STORAGE IN MODEL EXPERIMENTAL     PACKAGE SFR             CONNECTED TO MODEL EXPERIMENTAL     PACKAGE SFR              ON UNIT   1015 AT TIME STEP     44, STRESS PERIOD      2

 HEAD WILL BE SAVED ON UNIT 1020 AT END OF TIME STEP   44, STRESS PERIOD    2

end timestep


start timestep kper="2" kstp="45" mode="normal"

 UBDSV1 SAVING           STO-SS ON UNIT   1019 AT TIME STEP     45, STRESS PERIOD      2
 UBDSV1 SAVING           STO-SY ON UNIT   1019 AT TIME STEP     45, STRESS PERIOD      2
 UBDSV1 SAVING     FLOW-JA-FACE ON UNIT   1019 AT TIME STEP     45, STRESS PERIOD      2
 UBDSV06 SAVING              GHB IN MODEL EXPERIMENTAL     PACKAGE EXPERIMENTAL    CONNECTED TO MODEL EXPERIMENTAL     PACKAGE GHB              ON UNIT   1019 AT TIME STEP     45, STRESS PERIOD      2
 UBDSV06 SAVING              RCH IN MODEL EXPERIMENTAL     PACKAGE EXPERIMENTAL    CONNECTED TO MODEL EXPERIMENTAL     PACKAGE RCH              ON UNIT   1019 AT TIME STEP     45, STRESS PERIOD      2
 UBDSV06 SAVING              SFR IN MODEL EXPERIMENTAL     PACKAGE EXPERIMENTAL    CONNECTED TO MODEL EXPERIMENTAL     PACKAGE SFR              ON UNIT   1019 AT TIME STEP     45, STRESS PERIOD      2
 UBDSV06 SAVING     FLOW-JA-FACE IN MODEL EXPERIMENTAL     PACKAGE SFR             CONNECTED TO MODEL EXPERIMENTAL     PACKAGE SFR              ON UNIT   1015 AT TIME STEP     45, STRESS PERIOD      2
 UBDSV06 SAVING              GWF IN MODEL EXPERIMENTAL     PACKAGE SFR             CONNECTED TO MODEL EXPERIMENTAL     PACKAGE EXPERIMENTAL     ON UNIT   1015 AT TIME STEP     45, STRESS PERIOD      2
 UBDSV06 SAVING         RAINFALL IN MODEL EXPERIMENTAL     PACKAGE SFR             CONNECTED TO MODEL EXPERIMENTAL     PACKAGE SFR              ON UNIT   1015 AT TIME STEP     45, STRESS PERIOD      2
 UBDSV06 SAVING      EVAPORATION IN MODEL EXPERIMENTAL     PACKAGE SFR             CONNECTED TO MODEL EXPERIMENTAL     PACKAGE SFR              ON UNIT   1015 AT TIME STEP     45, STRESS PERIOD      2
 UBDSV06 SAVING           RUNOFF IN MODEL EXPERIMENTAL     PACKAGE SFR             CONNECTED TO MODEL EXPERIMENTAL     PACKAGE SFR              ON UNIT   1015 AT TIME STEP     45, STRESS PERIOD      2
 UBDSV06 SAVING       EXT-INFLOW IN MODEL EXPERIMENTAL     PACKAGE SFR             CONNECTED TO MODEL EXPERIMENTAL     PACKAGE SFR              ON UNIT   1015 AT TIME STEP     45, STRESS PERIOD      2
 UBDSV06 SAVING      EXT-OUTFLOW IN MODEL EXPERIMENTAL     PACKAGE SFR             CONNECTED TO MODEL EXPERIMENTAL     PACKAGE SFR              ON UNIT   1015 AT TIME STEP     45, STRESS PERIOD      2
 UBDSV06 SAVING          STORAGE IN MODEL EXPERIMENTAL     PACKAGE SFR             CONNECTED TO MODEL EXPERIMENTAL     PACKAGE SFR              ON UNIT   1015 AT TIME STEP     45, STRESS PERIOD      2

 HEAD WILL BE SAVED ON UNIT 1020 AT END OF TIME STEP   45, STRESS PERIOD    2

end timestep


start timestep kper="2" kstp="46" mode="normal"

 UBDSV1 SAVING           STO-SS ON UNIT   1019 AT TIME STEP     46, STRESS PERIOD      2
 UBDSV1 SAVING           STO-SY ON UNIT   1019 AT TIME STEP     46, STRESS PERIOD      2
 UBDSV1 SAVING     FLOW-JA-FACE ON UNIT   1019 AT TIME STEP     46, STRESS PERIOD      2
 UBDSV06 SAVING              GHB IN MODEL EXPERIMENTAL     PACKAGE EXPERIMENTAL    CONNECTED TO MODEL EXPERIMENTAL     PACKAGE GHB              ON UNIT   1019 AT TIME STEP     46, STRESS PERIOD      2
 UBDSV06 SAVING              RCH IN MODEL EXPERIMENTAL     PACKAGE EXPERIMENTAL    CONNECTED TO MODEL EXPERIMENTAL     PACKAGE RCH              ON UNIT   1019 AT TIME STEP     46, STRESS PERIOD      2
 UBDSV06 SAVING              SFR IN MODEL EXPERIMENTAL     PACKAGE EXPERIMENTAL    CONNECTED TO MODEL EXPERIMENTAL     PACKAGE SFR              ON UNIT   1019 AT TIME STEP     46, STRESS PERIOD      2
 UBDSV06 SAVING     FLOW-JA-FACE IN MODEL EXPERIMENTAL     PACKAGE SFR             CONNECTED TO MODEL EXPERIMENTAL     PACKAGE SFR              ON UNIT   1015 AT TIME STEP     46, STRESS PERIOD      2
 UBDSV06 SAVING              GWF IN MODEL EXPERIMENTAL     PACKAGE SFR             CONNECTED TO MODEL EXPERIMENTAL     PACKAGE EXPERIMENTAL     ON UNIT   1015 AT TIME STEP     46, STRESS PERIOD      2
 UBDSV06 SAVING         RAINFALL IN MODEL EXPERIMENTAL     PACKAGE SFR             CONNECTED TO MODEL EXPERIMENTAL     PACKAGE SFR              ON UNIT   1015 AT TIME STEP     46, STRESS PERIOD      2
 UBDSV06 SAVING      EVAPORATION IN MODEL EXPERIMENTAL     PACKAGE SFR             CONNECTED TO MODEL EXPERIMENTAL     PACKAGE SFR              ON UNIT   1015 AT TIME STEP     46, STRESS PERIOD      2
 UBDSV06 SAVING           RUNOFF IN MODEL EXPERIMENTAL     PACKAGE SFR             CONNECTED TO MODEL EXPERIMENTAL     PACKAGE SFR              ON UNIT   1015 AT TIME STEP     46, STRESS PERIOD      2
 UBDSV06 SAVING       EXT-INFLOW IN MODEL EXPERIMENTAL     PACKAGE SFR             CONNECTED TO MODEL EXPERIMENTAL     PACKAGE SFR              ON UNIT   1015 AT TIME STEP     46, STRESS PERIOD      2
 UBDSV06 SAVING      EXT-OUTFLOW IN MODEL EXPERIMENTAL     PACKAGE SFR             CONNECTED TO MODEL EXPERIMENTAL     PACKAGE SFR              ON UNIT   1015 AT TIME STEP     46, STRESS PERIOD      2
 UBDSV06 SAVING          STORAGE IN MODEL EXPERIMENTAL     PACKAGE SFR             CONNECTED TO MODEL EXPERIMENTAL     PACKAGE SFR              ON UNIT   1015 AT TIME STEP     46, STRESS PERIOD      2

 HEAD WILL BE SAVED ON UNIT 1020 AT END OF TIME STEP   46, STRESS PERIOD    2

end timestep


start timestep kper="2" kstp="47" mode="normal"

 UBDSV1 SAVING           STO-SS ON UNIT   1019 AT TIME STEP     47, STRESS PERIOD      2
 UBDSV1 SAVING           STO-SY ON UNIT   1019 AT TIME STEP     47, STRESS PERIOD      2
 UBDSV1 SAVING     FLOW-JA-FACE ON UNIT   1019 AT TIME STEP     47, STRESS PERIOD      2
 UBDSV06 SAVING              GHB IN MODEL EXPERIMENTAL     PACKAGE EXPERIMENTAL    CONNECTED TO MODEL EXPERIMENTAL     PACKAGE GHB              ON UNIT   1019 AT TIME STEP     47, STRESS PERIOD      2
 UBDSV06 SAVING              RCH IN MODEL EXPERIMENTAL     PACKAGE EXPERIMENTAL    CONNECTED TO MODEL EXPERIMENTAL     PACKAGE RCH              ON UNIT   1019 AT TIME STEP     47, STRESS PERIOD      2
 UBDSV06 SAVING              SFR IN MODEL EXPERIMENTAL     PACKAGE EXPERIMENTAL    CONNECTED TO MODEL EXPERIMENTAL     PACKAGE SFR              ON UNIT   1019 AT TIME STEP     47, STRESS PERIOD      2
 UBDSV06 SAVING     FLOW-JA-FACE IN MODEL EXPERIMENTAL     PACKAGE SFR             CONNECTED TO MODEL EXPERIMENTAL     PACKAGE SFR              ON UNIT   1015 AT TIME STEP     47, STRESS PERIOD      2
 UBDSV06 SAVING              GWF IN MODEL EXPERIMENTAL     PACKAGE SFR             CONNECTED TO MODEL EXPERIMENTAL     PACKAGE EXPERIMENTAL     ON UNIT   1015 AT TIME STEP     47, STRESS PERIOD      2
 UBDSV06 SAVING         RAINFALL IN MODEL EXPERIMENTAL     PACKAGE SFR             CONNECTED TO MODEL EXPERIMENTAL     PACKAGE SFR              ON UNIT   1015 AT TIME STEP     47, STRESS PERIOD      2
 UBDSV06 SAVING      EVAPORATION IN MODEL EXPERIMENTAL     PACKAGE SFR             CONNECTED TO MODEL EXPERIMENTAL     PACKAGE SFR              ON UNIT   1015 AT TIME STEP     47, STRESS PERIOD      2
 UBDSV06 SAVING           RUNOFF IN MODEL EXPERIMENTAL     PACKAGE SFR             CONNECTED TO MODEL EXPERIMENTAL     PACKAGE SFR              ON UNIT   1015 AT TIME STEP     47, STRESS PERIOD      2
 UBDSV06 SAVING       EXT-INFLOW IN MODEL EXPERIMENTAL     PACKAGE SFR             CONNECTED TO MODEL EXPERIMENTAL     PACKAGE SFR              ON UNIT   1015 AT TIME STEP     47, STRESS PERIOD      2
 UBDSV06 SAVING      EXT-OUTFLOW IN MODEL EXPERIMENTAL     PACKAGE SFR             CONNECTED TO MODEL EXPERIMENTAL     PACKAGE SFR              ON UNIT   1015 AT TIME STEP     47, STRESS PERIOD      2
 UBDSV06 SAVING          STORAGE IN MODEL EXPERIMENTAL     PACKAGE SFR             CONNECTED TO MODEL EXPERIMENTAL     PACKAGE SFR              ON UNIT   1015 AT TIME STEP     47, STRESS PERIOD      2

 HEAD WILL BE SAVED ON UNIT 1020 AT END OF TIME STEP   47, STRESS PERIOD    2

end timestep


start timestep kper="2" kstp="48" mode="normal"

 UBDSV1 SAVING           STO-SS ON UNIT   1019 AT TIME STEP     48, STRESS PERIOD      2
 UBDSV1 SAVING           STO-SY ON UNIT   1019 AT TIME STEP     48, STRESS PERIOD      2
 UBDSV1 SAVING     FLOW-JA-FACE ON UNIT   1019 AT TIME STEP     48, STRESS PERIOD      2
 UBDSV06 SAVING              GHB IN MODEL EXPERIMENTAL     PACKAGE EXPERIMENTAL    CONNECTED TO MODEL EXPERIMENTAL     PACKAGE GHB              ON UNIT   1019 AT TIME STEP     48, STRESS PERIOD      2

 GHB PACKAGE (GHB) FLOW RATES   PERIOD      2   STEP       48
 --------------------------------------------------------------------
   NUMBER   CELLID                    RATE       NAME                
 --------------------------------------------------------------------
     1      (1,842)               69.380582      RED                 
     2      (1,928)               71.489182      RED                 
     3      (1,1026)              73.968818      RED                 
     4      (1,1118)              76.004688      RED                 
     5      (1,1225)              77.546822      RED                 
     6      (1,1350)              79.453388      RED                 
     7      (1,1487)              81.091316      RED                 
     8      (1,1620)              81.746314      RED                 
     9      (1,1764)              81.517397      RED                 
     10     (1,1895)              78.226572      RED                 
     11     (1,2040)              77.760736      RED                 
     12     (1,2139)              74.020674      RED                 
     13     (1,2222)              72.695715      RED                 
     14     (1,2310)              75.026428      RED                 
     15     (1,2394)              75.326021      RED                 
     16     (1,2480)              74.663278      RED                 
     17     (1,2565)              74.619597      RED                 
     18     (1,2667)              74.261924      RED                 
     19     (1,2822)              74.780864      RED                 
     20     (1,2979)              74.818442      RED                 
     21     (1,3096)              74.257080      RED                 
     22     (1,3209)              68.588570      RED                 
     23     (1,3210)              68.410549      RED                 
     24     (1,3283)              75.570750      RED                 
     25     (1,3352)              77.063538      RED                 
     26     (1,3432)              77.392679      RED                 
     27     (1,440)               190.54912      ORANGERED           
     28     (1,516)               164.12253      ORANGERED           
     29     (1,596)               145.24165      ORANGERED           
     30     (1,677)               130.81846      ORANGERED           
     31     (1,759)               120.06105      ORANGERED           
     32     (1,315)               164.22214      ORANGE              
     33     (1,316)               145.03446      ORANGE              
     34     (1,317)               130.46058      ORANGE              
     35     (1,318)               119.04499      ORANGE              
     36     (1,319)               109.31292      ORANGE              
     37     (1,320)               100.55941      ORANGE              
     38     (1,321)               92.535792      ORANGE              
     39     (1,322)               85.051942      ORANGE              
     40     (1,323)               78.123697      ORANGE              
     41     (1,324)               71.422873      ORANGE              
     42     (1,325)               64.785646      ORANGE              
     43     (1,326)               58.112948      ORANGE              
     44     (1,327)               51.280394      ORANGE              
     45     (1,328)               44.627823      ORANGE              
     46     (1,329)               37.974176      ORANGE              
     47     (1,330)               31.253963      ORANGE              
     48     (1,331)               24.228663      ORANGE              
     49     (1,332)               17.729104      ORANGE              
     50     (1,333)               11.479260      ORANGE              
     51     (1,334)               5.5440268      ORANGE              
     52     (1,335)              -0.29264881     ORANGE              
     53     (1,336)              -5.8015476      ORANGE              
     54     (1,337)              -11.668479      ORANGE              
     55     (1,338)              -7.5642349      ORANGE              
     56     (1,339)              -3.2160305      ORANGE              
     57     (1,340)              -5.6092827      ORANGE              
     58     (1,341)              -12.680103      ORANGE              
     59     (1,342)              -18.806214      ORANGE              
     60     (1,343)              -16.219634      ORANGE              
     61     (1,344)              -15.053424      ORANGE              
     62     (1,345)              -23.960070      ORANGE              
     63     (1,346)              -26.442568      ORANGE              
     64     (1,347)              -27.267275      ORANGE              
     65     (1,348)              -41.747536      ORANGE              
     66     (1,349)              -68.387390      ORANGE              
     67     (1,350)              -60.403987      ORANGE              
     68     (1,51)                82.191979      GOLD                
     69     (1,84)                75.953120      GOLD                
     70     (1,116)               69.701606      GOLD                
     71     (1,150)               63.083612      GOLD                
     72     (1,186)               55.081022      GOLD                
     73     (1,224)               44.552925      GOLD                
     74     (1,264)               28.835998      GOLD                
     75     (1,1)                 61.317129      YELLOWGREEN         
     76     (1,2)                 62.452788      YELLOWGREEN         
     77     (1,3)                 65.437306      YELLOWGREEN         
     78     (1,4)                 71.751951      YELLOWGREEN         
     79     (1,5)                 76.146214      YELLOWGREEN         
     80     (1,6)                 76.794656      YELLOWGREEN         
     81     (1,9)                 78.274857      YELLOWGREEN         
     82     (1,10)                70.606727      YELLOWGREEN         
     83     (1,11)                63.967756      YELLOWGREEN         
     84     (1,12)                58.037172      YELLOWGREEN         
     85     (1,13)                52.585420      YELLOWGREEN         
     86     (1,14)                47.372910      YELLOWGREEN         
     87     (1,15)                42.418118      YELLOWGREEN         
     88     (1,16)                37.644649      YELLOWGREEN         
     89     (1,17)                32.926217      YELLOWGREEN         
     90     (1,18)                27.985156      YELLOWGREEN         
     91     (1,19)                23.110935      YELLOWGREEN         
     92     (1,20)                18.760902      YELLOWGREEN         
     93     (1,21)                14.584174      YELLOWGREEN         
     94     (1,22)                10.638774      YELLOWGREEN         
     95     (1,23)                7.5142237      YELLOWGREEN         
     96     (1,52)               -5.9020197      LIMEGREEN           
     97     (1,85)               -4.7501536      LIMEGREEN           
     98     (1,117)              -3.9382591      LIMEGREEN           
     99     (1,151)              -3.0459602      LIMEGREEN           
    100     (1,187)              -1.8621661      LIMEGREEN           
    101     (1,265)              -30.553799      AQUA                
    102     (1,351)              -30.367415      AQUA                
    103     (1,441)              -30.201907      AQUA                
    104     (1,517)              -30.139649      AQUA                
    105     (1,597)              -30.173912      AQUA                
    106     (1,678)              -30.280722      AQUA                
    107     (1,760)              -30.439355      AQUA                
    108     (1,843)              -30.640247      AQUA                
    109     (1,929)              -30.865379      AQUA                
    110     (1,1027)             -31.104411      AQUA                
    111     (1,1119)             -31.367092      AQUA                
    112     (1,1226)             -31.647372      AQUA                
    113     (1,1351)             -31.905688      AQUA                
    114     (1,1621)             -36.135963      DARKTURQUOISE       
    115     (1,1765)             -37.682884      DARKTURQUOISE       
    116     (1,1896)             -39.518154      DARKTURQUOISE       
    117     (1,2041)             -41.511618      DARKTURQUOISE       
    118     (1,2140)             -43.648256      DARKTURQUOISE       
    119     (1,2223)             -45.959932      DARKTURQUOISE       
    120     (1,2311)             -48.441107      DARKTURQUOISE       
    121     (1,2395)             -51.068663      DARKTURQUOISE       
    122     (1,2481)             -53.909520      DARKTURQUOISE       
    123     (1,2566)             -56.957045      DARKTURQUOISE       
    124     (1,2668)             -60.161819      DARKTURQUOISE       
    125     (1,2823)             -63.972420      DARKTURQUOISE       
    126     (1,2980)             -67.922743      DARKTURQUOISE       
    127     (1,3097)             -71.999003      DARKTURQUOISE       
    128     (1,3211)             -76.211581      DARKTURQUOISE       
    129     (1,3284)             -80.657283      DARKTURQUOISE       
    130     (1,3353)             -85.306174      DARKTURQUOISE       
    131     (1,3433)             -89.966374      DARKTURQUOISE       
    132     (1,3504)             -94.881729      DARKTURQUOISE       
    133     (1,3569)             -100.23076      DARKTURQUOISE       
    134     (1,3619)             -106.05169      DARKTURQUOISE       
    135     (1,3666)             -112.48886      DARKTURQUOISE       
    136     (1,3709)             -103.86994      DARKTURQUOISE       
    137     (1,3745)             -45.814551      DARKTURQUOISE       
    138     (1,3774)              9.1899826      ROYALBLUE           
    139     (1,3775)              36.910781      ROYALBLUE           
    140     (1,3776)              63.261956      ROYALBLUE           
    141     (1,3777)              94.816605      ROYALBLUE           
    142     (1,3778)              108.91567      ROYALBLUE           
    143     (1,3779)              140.44803      ROYALBLUE           
    144     (1,3780)              150.21863      ROYALBLUE           
    145     (1,3781)              160.67907      ROYALBLUE           
    146     (1,3782)              168.33722      ROYALBLUE           
    147     (1,3783)              176.41151      ROYALBLUE           
    148     (1,3760)              152.78339      BLUE                
    149     (1,3773)              188.80642      BLUE                
    150     (1,3726)              102.03946      BLUEVIOLET          
    151     (1,3727)              90.346087      BLUEVIOLET          
    152     (1,3728)              72.360226      BLUEVIOLET          
    153     (1,3729)              59.773085      BLUEVIOLET          
    154     (1,3730)              54.539818      BLUEVIOLET          
    155     (1,3731)              73.947460      BLUEVIOLET          
    156     (1,3732)              58.090379      BLUEVIOLET          
    157     (1,3733)              49.392913      BLUEVIOLET          
    158     (1,3734)              45.945355      BLUEVIOLET          
    159     (1,3735)              40.152809      BLUEVIOLET          
    160     (1,3736)              43.378742      BLUEVIOLET          
    161     (1,3737)              42.612658      BLUEVIOLET          
    162     (1,3738)              33.343315      BLUEVIOLET          
    163     (1,3739)              33.153227      BLUEVIOLET          
    164     (1,3740)              24.188582      BLUEVIOLET          
    165     (1,3741)              28.998001      BLUEVIOLET          
    166     (1,3742)              40.858149      BLUEVIOLET          
    167     (1,3743)              51.816399      BLUEVIOLET          
    168     (1,3744)              50.317961      BLUEVIOLET          
    169     (1,3703)              58.878642      PURPLE              
    170     (1,3704)              90.028728      PURPLE              
    171     (1,3705)              108.89631      PURPLE              
    172     (1,3706)              125.32410      PURPLE              
    173     (1,3707)              129.28253      PURPLE              
    174     (1,3708)              139.40577      PURPLE              
    175     (1,3663)              108.36679      MEDIUMVIOLETRED     
    176     (1,3664)              115.68898      MEDIUMVIOLETRED     
    177     (1,3665)              119.26968      MEDIUMVIOLETRED     
    178     (1,3503)             -42.095854      CRIMSON             
    179     (1,3568)              23.620704      CRIMSON             
    180     (1,3618)              72.928641      CRIMSON             
 --------------------------------------------------------------------



 UBDSV06 SAVING              RCH IN MODEL EXPERIMENTAL     PACKAGE EXPERIMENTAL    CONNECTED TO MODEL EXPERIMENTAL     PACKAGE RCH              ON UNIT   1019 AT TIME STEP     48, STRESS PERIOD      2

 RCH PACKAGE (RCH) FLOW RATES   PERIOD      2   STEP       48
 -----------------------------------------------
   NUMBER   CELLID                    RATE      
 -----------------------------------------------
     1      (1,7)                 1.36966235E-02
     2      (1,8)                 1.36963559E-02
     3      (1,24)                5.47859589E-02
     4      (1,25)                5.47859589E-02
     5      (1,26)                5.47863602E-02
     6      (1,27)                5.47852900E-02
     7      (1,28)                5.47961258E-02
     8      (1,29)                1.36966235E-02
     9      (1,30)                1.36964897E-02
     10     (1,31)                1.36968910E-02
     11     (1,32)                1.36967573E-02
     12     (1,33)                1.36958208E-02
     13     (1,34)                1.36966235E-02
     14     (1,35)                1.36963559E-02
     15     (1,36)                1.36983626E-02
     16     (1,37)                5.47688356E-02
     17     (1,38)                5.48141855E-02
     18     (1,39)                5.48250214E-02
     19     (1,40)                5.47860926E-02
     20     (1,41)                5.47859589E-02
     21     (1,42)                5.47860926E-02
     22     (1,43)                5.47860926E-02
     23     (1,44)                5.47859589E-02
     24     (1,45)                5.47855575E-02
     25     (1,46)                5.47854238E-02
     26     (1,47)                5.48246200E-02
     27     (1,48)                5.48242187E-02
     28     (1,49)                5.47863602E-02
     29     (1,50)                5.47889019E-02
     30     (1,53)                5.48248876E-02
     31     (1,54)                5.47858251E-02
     32     (1,55)                5.47860926E-02
     33     (1,56)                5.47854238E-02
     34     (1,57)                5.47856913E-02
     35     (1,58)                5.48073630E-02
     36     (1,59)                1.36979612E-02
     37     (1,60)                1.36963559E-02
     38     (1,61)                1.36968910E-02
     39     (1,62)                1.36968910E-02
     40     (1,63)                1.36966235E-02
     41     (1,64)                1.36966235E-02
     42     (1,65)                1.36960884E-02
     43     (1,66)                1.36959546E-02
     44     (1,67)                1.36962222E-02
     45     (1,68)                1.36956871E-02
     46     (1,69)                1.36963559E-02
     47     (1,70)                1.36968910E-02
     48     (1,71)                5.48050888E-02
     49     (1,72)                5.48243525E-02
     50     (1,73)                5.47859589E-02
     51     (1,74)                5.47852900E-02
     52     (1,75)                5.47859589E-02
     53     (1,76)                5.47859589E-02
     54     (1,77)                5.47862264E-02
     55     (1,78)                5.47860926E-02
     56     (1,79)                5.47855575E-02
     57     (1,80)                5.48246200E-02
     58     (1,81)                5.48282320E-02
     59     (1,82)                5.47887681E-02
     60     (1,83)                5.47864940E-02
     61     (1,86)                5.47856913E-02
     62     (1,87)                5.48240849E-02
     63     (1,88)                5.48244863E-02
     64     (1,89)                5.47855575E-02
     65     (1,90)                5.47856913E-02
     66     (1,91)                5.47898384E-02
     67     (1,92)                5.47899721E-02
     68     (1,93)                5.47954569E-02
     69     (1,94)                5.48044199E-02
     70     (1,95)                1.36968910E-02
     71     (1,96)                1.36968910E-02
     72     (1,97)                1.36963559E-02
     73     (1,98)                1.36962222E-02
     74     (1,99)                1.36962222E-02
     75     (1,100)               1.36964897E-02
     76     (1,101)               1.36967573E-02
     77     (1,102)               1.36959546E-02
     78     (1,103)               5.48056239E-02
     79     (1,104)               5.48246200E-02
     80     (1,105)               5.47855575E-02
     81     (1,106)               5.47859589E-02
     82     (1,107)               5.47860926E-02
     83     (1,108)               5.47862264E-02
     84     (1,109)               5.47863602E-02
     85     (1,110)               5.47859589E-02
     86     (1,111)               5.47897046E-02
     87     (1,112)               5.48282320E-02
     88     (1,113)               5.48240849E-02
     89     (1,114)               5.47854238E-02
     90     (1,115)               5.47856913E-02
     91     (1,118)               5.47855575E-02
     92     (1,119)               5.47855575E-02
     93     (1,120)               5.47858251E-02
     94     (1,121)               5.48239512E-02
     95     (1,122)               5.48242187E-02
     96     (1,123)               5.47899721E-02
     97     (1,124)               5.47891695E-02
     98     (1,125)               5.47856913E-02
     99     (1,126)               5.47858251E-02
    100     (1,127)               5.47858251E-02
    101     (1,128)               5.48053563E-02
    102     (1,129)               1.36968910E-02
    103     (1,130)               1.36960884E-02
    104     (1,131)               1.36970248E-02
    105     (1,132)               1.36963559E-02
    106     (1,133)               1.36967573E-02
    107     (1,134)               1.36986301E-02
    108     (1,135)               1.36984963E-02
    109     (1,136)               1.36966235E-02
    110     (1,137)               5.48049550E-02
    111     (1,138)               5.48250214E-02
    112     (1,139)               5.47856913E-02
    113     (1,140)               5.47860926E-02
    114     (1,141)               5.47859589E-02
    115     (1,142)               5.47859589E-02
    116     (1,143)               5.47894370E-02
    117     (1,144)               5.47903735E-02
    118     (1,145)               5.47855575E-02
    119     (1,146)               5.48243525E-02
    120     (1,147)               5.48242187E-02
    121     (1,148)               5.47863602E-02
    122     (1,149)               5.47859589E-02
    123     (1,152)               5.47862264E-02
    124     (1,153)               5.47860926E-02
    125     (1,154)               5.47851562E-02
    126     (1,155)               5.47863602E-02
    127     (1,156)               5.47851562E-02
    128     (1,157)               5.48286333E-02
    129     (1,158)               5.48283657E-02
    130     (1,159)               5.47858251E-02
    131     (1,160)               5.47855575E-02
    132     (1,161)               5.47862264E-02
    133     (1,162)               5.47859589E-02
    134     (1,163)               5.47860926E-02
    135     (1,164)               5.48070954E-02
    136     (1,165)               1.36972924E-02
    137     (1,166)               1.36971586E-02
    138     (1,167)               1.36964897E-02
    139     (1,168)               1.36970248E-02
    140     (1,169)               1.36967573E-02
    141     (1,170)               1.36962222E-02
    142     (1,171)               1.36962222E-02
    143     (1,172)               1.36963559E-02
    144     (1,173)               5.48058914E-02
    145     (1,174)               5.48238174E-02
    146     (1,175)               5.47860926E-02
    147     (1,176)               5.47858251E-02
    148     (1,177)               5.47894370E-02
    149     (1,178)               5.47901059E-02
    150     (1,179)               5.47863602E-02
    151     (1,180)               5.47858251E-02
    152     (1,181)               5.47855575E-02
    153     (1,182)               5.48250214E-02
    154     (1,183)               5.48246200E-02
    155     (1,184)               5.47855575E-02
    156     (1,185)               5.47855575E-02
    157     (1,188)               5.47860926E-02
    158     (1,189)               5.47860926E-02
    159     (1,190)               5.47863602E-02
    160     (1,191)               5.47859589E-02
    161     (1,192)               5.47852900E-02
    162     (1,193)               5.47897046E-02
    163     (1,194)               5.47897046E-02
    164     (1,195)               5.48244863E-02
    165     (1,196)               5.48244863E-02
    166     (1,197)               5.47855575E-02
    167     (1,198)               5.47851562E-02
    168     (1,199)               5.47858251E-02
    169     (1,200)               5.47863602E-02
    170     (1,201)               5.47860926E-02
    171     (1,202)               5.48048212E-02
    172     (1,203)               1.36963559E-02
    173     (1,204)               1.36960884E-02
    174     (1,205)               1.36964897E-02
    175     (1,206)               1.36960884E-02
    176     (1,207)               1.36960884E-02
    177     (1,208)               1.36967573E-02
    178     (1,209)               1.36967573E-02
    179     (1,210)               1.36967573E-02
    180     (1,211)               5.48045537E-02
    181     (1,212)               5.48244863E-02
    182     (1,213)               5.47894370E-02
    183     (1,214)               5.47891695E-02
    184     (1,215)               5.47863602E-02
    185     (1,216)               5.47858251E-02
    186     (1,217)               5.47859589E-02
    187     (1,218)               5.47860926E-02
    188     (1,219)               5.47862264E-02
    189     (1,220)               5.48246200E-02
    190     (1,221)               5.48239512E-02
    191     (1,222)               5.47862264E-02
    192     (1,223)               5.47859589E-02
    193     (1,225)               5.47854238E-02
    194     (1,226)               5.48242187E-02
    195     (1,227)               5.48251551E-02
    196     (1,228)               5.47856913E-02
    197     (1,229)               5.47860926E-02
    198     (1,230)               5.47862264E-02
    199     (1,231)               5.47894370E-02
    200     (1,232)               5.47897046E-02
    201     (1,233)               5.47860926E-02
    202     (1,234)               5.47858251E-02
    203     (1,235)               5.48244863E-02
    204     (1,236)               5.48243525E-02
    205     (1,237)               5.47862264E-02
    206     (1,238)               5.47855575E-02
    207     (1,239)               5.47856913E-02
    208     (1,240)               5.47859589E-02
    209     (1,241)               5.47856913E-02
    210     (1,242)               5.48058914E-02
    211     (1,243)               1.36970248E-02
    212     (1,244)               1.36963559E-02
    213     (1,245)               1.36963559E-02
    214     (1,246)               1.36968910E-02
    215     (1,247)               1.36964897E-02
    216     (1,248)               1.36964897E-02
    217     (1,249)               1.36963559E-02
    218     (1,250)               1.36968910E-02
    219     (1,251)               5.48081656E-02
    220     (1,252)               5.48272955E-02
    221     (1,253)               5.47939854E-02
    222     (1,254)               5.47858251E-02
    223     (1,255)               5.47856913E-02
    224     (1,256)               5.47859589E-02
    225     (1,257)               5.47859589E-02
    226     (1,258)               5.47862264E-02
    227     (1,259)               5.47858251E-02
    228     (1,260)               5.48243525E-02
    229     (1,261)               5.48244863E-02
    230     (1,262)               5.47855575E-02
    231     (1,263)               5.47852900E-02
    232     (1,266)               5.47856913E-02
    233     (1,267)               5.47878317E-02
    234     (1,268)               1.36966235E-02
    235     (1,269)               1.37160210E-02
    236     (1,270)               1.36962222E-02
    237     (1,271)               1.36964897E-02
    238     (1,272)               5.48239512E-02
    239     (1,273)               5.47863602E-02
    240     (1,274)               5.47902397E-02
    241     (1,275)               5.47895708E-02
    242     (1,276)               5.47854238E-02
    243     (1,277)               5.47854238E-02
    244     (1,278)               5.47855575E-02
    245     (1,279)               5.47854238E-02
    246     (1,280)               5.48246200E-02
    247     (1,281)               5.48243525E-02
    248     (1,282)               5.47855575E-02
    249     (1,283)               5.47854238E-02
    250     (1,284)               5.47858251E-02
    251     (1,285)               5.47858251E-02
    252     (1,286)               5.47852900E-02
    253     (1,287)               5.48049550E-02
    254     (1,288)               1.36960884E-02
    255     (1,289)               1.36963559E-02
    256     (1,290)               1.36968910E-02
    257     (1,291)               1.36978275E-02
    258     (1,292)               1.36990315E-02
    259     (1,293)               1.36966235E-02
    260     (1,294)               1.36960884E-02
    261     (1,295)               1.36963559E-02
    262     (1,296)               1.36964897E-02
    263     (1,297)               1.37160210E-02
    264     (1,298)               1.36966235E-02
    265     (1,299)               1.36964897E-02
    266     (1,300)               1.36962222E-02
    267     (1,301)               1.36963559E-02
    268     (1,302)               1.37157534E-02
    269     (1,303)               1.36960884E-02
    270     (1,304)               5.48048212E-02
    271     (1,305)               5.47946543E-02
    272     (1,306)               5.47858251E-02
    273     (1,307)               5.47854238E-02
    274     (1,308)               5.47855575E-02
    275     (1,309)               5.47862264E-02
    276     (1,310)               5.47859589E-02
    277     (1,311)               5.48239512E-02
    278     (1,312)               5.48248876E-02
    279     (1,313)               5.47856913E-02
    280     (1,314)               5.47859589E-02
    281     (1,352)               5.47965271E-02
    282     (1,353)               1.36967573E-02
    283     (1,354)               1.37015732E-02
    284     (1,355)               1.36963559E-02
    285     (1,356)               1.36962222E-02
    286     (1,357)               3.41957406E-03
    287     (1,358)               3.42853703E-03
    288     (1,359)               3.42037671E-03
    289     (1,360)               3.41944028E-03
    290     (1,361)               1.36956871E-02
    291     (1,362)               1.37007705E-02
    292     (1,363)               1.36966235E-02
    293     (1,364)               5.48140517E-02
    294     (1,365)               5.48283657E-02
    295     (1,366)               5.47898384E-02
    296     (1,367)               5.47858251E-02
    297     (1,368)               5.47860926E-02
    298     (1,369)               5.47858251E-02
    299     (1,370)               5.47858251E-02
    300     (1,371)               5.47859589E-02
    301     (1,372)               5.47852900E-02
    302     (1,373)               5.48250214E-02
    303     (1,374)               5.48239512E-02
    304     (1,375)               5.47862264E-02
    305     (1,376)               5.47858251E-02
    306     (1,377)               5.47862264E-02
    307     (1,378)               5.47855575E-02
    308     (1,379)               5.47891695E-02
    309     (1,380)               5.47989351E-02
    310     (1,381)               5.47959920E-02
    311     (1,382)               5.48056239E-02
    312     (1,383)               1.36970248E-02
    313     (1,384)               1.37158872E-02
    314     (1,385)               1.36959546E-02
    315     (1,386)               1.36960884E-02
    316     (1,387)               1.36960884E-02
    317     (1,388)               1.36952857E-02
    318     (1,389)               1.37161547E-02
    319     (1,390)               1.36967573E-02
    320     (1,391)               1.36960884E-02
    321     (1,392)               1.36967573E-02
    322     (1,393)               1.36954195E-02
    323     (1,394)               1.36966235E-02
    324     (1,395)               5.47966609E-02
    325     (1,396)               5.47859589E-02
    326     (1,397)               5.47858251E-02
    327     (1,398)               5.47851562E-02
    328     (1,399)               5.47860926E-02
    329     (1,400)               5.47858251E-02
    330     (1,401)               5.48242187E-02
    331     (1,402)               5.48242187E-02
    332     (1,403)               5.47903735E-02
    333     (1,404)               5.47886344E-02
    334     (1,405)               5.47858251E-02
    335     (1,406)               5.47856913E-02
    336     (1,407)               5.47858251E-02
    337     (1,408)               5.47856913E-02
    338     (1,409)               5.47856913E-02
    339     (1,410)               5.48242187E-02
    340     (1,411)               5.48242187E-02
    341     (1,412)               5.47854238E-02
    342     (1,413)               5.47858251E-02
    343     (1,414)               5.47855575E-02
    344     (1,415)               5.47858251E-02
    345     (1,416)               5.47859589E-02
    346     (1,417)               5.47859589E-02
    347     (1,418)               5.47894370E-02
    348     (1,419)               5.47899721E-02
    349     (1,420)               5.48240849E-02
    350     (1,421)               5.48242187E-02
    351     (1,422)               5.47856913E-02
    352     (1,423)               5.47860926E-02
    353     (1,424)               5.47852900E-02
    354     (1,425)               5.47858251E-02
    355     (1,426)               5.47856913E-02
    356     (1,427)               5.47854238E-02
    357     (1,428)               5.47859589E-02
    358     (1,429)               5.48246200E-02
    359     (1,430)               5.48248876E-02
    360     (1,431)               5.47859589E-02
    361     (1,432)               5.47894370E-02
    362     (1,433)               5.47890357E-02
    363     (1,434)               5.47854238E-02
    364     (1,435)               5.47855575E-02
    365     (1,436)               5.47854238E-02
    366     (1,437)               5.47856913E-02
    367     (1,438)               5.47855575E-02
    368     (1,439)               5.48244863E-02
    369     (1,442)               5.47858251E-02
    370     (1,443)               5.47949218E-02
    371     (1,444)               5.47945205E-02
    372     (1,445)               5.47895708E-02
    373     (1,446)               5.48280982E-02
    374     (1,447)               5.48242187E-02
    375     (1,448)               5.47856913E-02
    376     (1,449)               5.47855575E-02
    377     (1,450)               5.47854238E-02
    378     (1,451)               5.47852900E-02
    379     (1,452)               5.47859589E-02
    380     (1,453)               5.47866277E-02
    381     (1,454)               5.47855575E-02
    382     (1,455)               5.48246200E-02
    383     (1,456)               5.48244863E-02
    384     (1,457)               5.47855575E-02
    385     (1,458)               5.47860926E-02
    386     (1,459)               5.47895708E-02
    387     (1,460)               5.47895708E-02
    388     (1,461)               5.47856913E-02
    389     (1,462)               5.47859589E-02
    390     (1,463)               5.47855575E-02
    391     (1,464)               5.47969285E-02
    392     (1,465)               5.48246200E-02
    393     (1,466)               1.36967573E-02
    394     (1,467)               1.36962222E-02
    395     (1,468)               1.37157534E-02
    396     (1,469)               1.36968910E-02
    397     (1,470)               5.48073630E-02
    398     (1,471)               5.47858251E-02
    399     (1,472)               5.47859589E-02
    400     (1,473)               5.47858251E-02
    401     (1,474)               5.47852900E-02
    402     (1,475)               5.47848887E-02
    403     (1,476)               5.47859589E-02
    404     (1,477)               5.48279644E-02
    405     (1,478)               5.48289009E-02
    406     (1,479)               5.47862264E-02
    407     (1,480)               5.47852900E-02
    408     (1,481)               5.47852900E-02
    409     (1,482)               5.47858251E-02
    410     (1,483)               5.47854238E-02
    411     (1,484)               5.47852900E-02
    412     (1,485)               5.47856913E-02
    413     (1,486)               5.48242187E-02
    414     (1,487)               5.48244863E-02
    415     (1,488)               5.47854238E-02
    416     (1,489)               5.47859589E-02
    417     (1,490)               5.47855575E-02
    418     (1,491)               5.47856913E-02
    419     (1,492)               5.47895708E-02
    420     (1,493)               5.47894370E-02
    421     (1,494)               5.47860926E-02
    422     (1,495)               5.47859589E-02
    423     (1,496)               5.48246200E-02
    424     (1,497)               5.48247538E-02
    425     (1,498)               5.47860926E-02
    426     (1,499)               5.47862264E-02
    427     (1,500)               5.47854238E-02
    428     (1,501)               5.47856913E-02
    429     (1,502)               5.47858251E-02
    430     (1,503)               5.47863602E-02
    431     (1,504)               5.47858251E-02
    432     (1,505)               5.48243525E-02
    433     (1,506)               5.48274293E-02
    434     (1,507)               5.47897046E-02
    435     (1,508)               5.47859589E-02
    436     (1,509)               5.47856913E-02
    437     (1,510)               5.47858251E-02
    438     (1,511)               5.47862264E-02
    439     (1,512)               5.47855575E-02
    440     (1,513)               5.47856913E-02
    441     (1,514)               5.47858251E-02
    442     (1,515)               5.48239512E-02
    443     (1,518)               5.47856913E-02
    444     (1,519)               5.47858251E-02
    445     (1,520)               5.47897046E-02
    446     (1,521)               5.47897046E-02
    447     (1,522)               5.47855575E-02
    448     (1,523)               5.48246200E-02
    449     (1,524)               5.48246200E-02
    450     (1,525)               5.47860926E-02
    451     (1,526)               5.47858251E-02
    452     (1,527)               5.47855575E-02
    453     (1,528)               5.47862264E-02
    454     (1,529)               5.47866277E-02
    455     (1,530)               5.47856913E-02
    456     (1,531)               5.47858251E-02
    457     (1,532)               5.48244863E-02
    458     (1,533)               5.48244863E-02
    459     (1,534)               5.47897046E-02
    460     (1,535)               5.47894370E-02
    461     (1,536)               5.47866277E-02
    462     (1,537)               5.47859589E-02
    463     (1,538)               5.47859589E-02
    464     (1,539)               5.47856913E-02
    465     (1,540)               5.47856913E-02
    466     (1,541)               5.47943867E-02
    467     (1,542)               1.36963559E-02
    468     (1,543)               1.37178938E-02
    469     (1,544)               1.36983626E-02
    470     (1,545)               1.36962222E-02
    471     (1,546)               1.36962222E-02
    472     (1,547)               1.36966235E-02
    473     (1,548)               1.37154859E-02
    474     (1,549)               1.36964897E-02
    475     (1,550)               5.48052226E-02
    476     (1,551)               5.47859589E-02
    477     (1,552)               5.47858251E-02
    478     (1,553)               5.47858251E-02
    479     (1,554)               5.47856913E-02
    480     (1,555)               5.47898384E-02
    481     (1,556)               5.47894370E-02
    482     (1,557)               5.48240849E-02
    483     (1,558)               5.48252889E-02
    484     (1,559)               5.47856913E-02
    485     (1,560)               5.47859589E-02
    486     (1,561)               5.47854238E-02
    487     (1,562)               5.47862264E-02
    488     (1,563)               5.47860926E-02
    489     (1,564)               5.47859589E-02
    490     (1,565)               5.47860926E-02
    491     (1,566)               5.48243525E-02
    492     (1,567)               5.48248876E-02
    493     (1,568)               5.47858251E-02
    494     (1,569)               5.47851562E-02
    495     (1,570)               5.47895708E-02
    496     (1,571)               5.47901059E-02
    497     (1,572)               5.47858251E-02
    498     (1,573)               5.47856913E-02
    499     (1,574)               5.47856913E-02
    500     (1,575)               5.47858251E-02
    501     (1,576)               5.48244863E-02
    502     (1,577)               5.48240849E-02
    503     (1,578)               5.47854238E-02
    504     (1,579)               5.47858251E-02
    505     (1,580)               5.47858251E-02
    506     (1,581)               5.47858251E-02
    507     (1,582)               5.47854238E-02
    508     (1,583)               5.47855575E-02
    509     (1,584)               5.47891695E-02
    510     (1,585)               5.48286333E-02
    511     (1,586)               5.48238174E-02
    512     (1,587)               5.47858251E-02
    513     (1,588)               5.47856913E-02
    514     (1,589)               5.47863602E-02
    515     (1,590)               5.47860926E-02
    516     (1,591)               5.47858251E-02
    517     (1,592)               5.47856913E-02
    518     (1,593)               5.47856913E-02
    519     (1,594)               5.47854238E-02
    520     (1,595)               5.48246200E-02
    521     (1,598)               5.47859589E-02
    522     (1,599)               5.47894370E-02
    523     (1,600)               5.47895708E-02
    524     (1,601)               5.47860926E-02
    525     (1,602)               5.47858251E-02
    526     (1,603)               5.47859589E-02
    527     (1,604)               5.48242187E-02
    528     (1,605)               5.48248876E-02
    529     (1,606)               5.47854238E-02
    530     (1,607)               5.47860926E-02
    531     (1,608)               5.47852900E-02
    532     (1,609)               5.47856913E-02
    533     (1,610)               5.47856913E-02
    534     (1,611)               5.47855575E-02
    535     (1,612)               5.47859589E-02
    536     (1,613)               5.48282320E-02
    537     (1,614)               5.48280982E-02
    538     (1,615)               5.47852900E-02
    539     (1,616)               5.47863602E-02
    540     (1,617)               5.47862264E-02
    541     (1,618)               5.47864940E-02
    542     (1,619)               5.47859589E-02
    543     (1,620)               5.47856913E-02
    544     (1,621)               5.47863602E-02
    545     (1,622)               5.48060252E-02
    546     (1,623)               1.36960884E-02
    547     (1,624)               1.37157534E-02
    548     (1,625)               1.36964897E-02
    549     (1,626)               1.36962222E-02
    550     (1,627)               1.36966235E-02
    551     (1,628)               1.36963559E-02
    552     (1,629)               1.37160210E-02
    553     (1,630)               1.36967573E-02
    554     (1,631)               5.48062928E-02
    555     (1,632)               5.47855575E-02
    556     (1,633)               5.47860926E-02
    557     (1,634)               5.47891695E-02
    558     (1,635)               5.47894370E-02
    559     (1,636)               5.47854238E-02
    560     (1,637)               5.47855575E-02
    561     (1,638)               5.48240849E-02
    562     (1,639)               5.48244863E-02
    563     (1,640)               5.47864940E-02
    564     (1,641)               5.47855575E-02
    565     (1,642)               5.47859589E-02
    566     (1,643)               5.47854238E-02
    567     (1,644)               5.47854238E-02
    568     (1,645)               5.47858251E-02
    569     (1,646)               5.47856913E-02
    570     (1,647)               5.48243525E-02
    571     (1,648)               5.48242187E-02
    572     (1,649)               5.47889019E-02
    573     (1,650)               5.47891695E-02
    574     (1,651)               5.47855575E-02
    575     (1,652)               5.47855575E-02
    576     (1,653)               5.47860926E-02
    577     (1,654)               5.47862264E-02
    578     (1,655)               5.47856913E-02
    579     (1,656)               5.47856913E-02
    580     (1,657)               5.48240849E-02
    581     (1,658)               5.48242187E-02
    582     (1,659)               5.47859589E-02
    583     (1,660)               5.47856913E-02
    584     (1,661)               5.47858251E-02
    585     (1,662)               5.47862264E-02
    586     (1,663)               5.47895708E-02
    587     (1,664)               5.47898384E-02
    588     (1,665)               5.47855575E-02
    589     (1,666)               5.48248876E-02
    590     (1,667)               5.48244863E-02
    591     (1,668)               5.47854238E-02
    592     (1,669)               5.47854238E-02
    593     (1,670)               5.47855575E-02
    594     (1,671)               5.47856913E-02
    595     (1,672)               5.47859589E-02
    596     (1,673)               5.47855575E-02
    597     (1,674)               5.47858251E-02
    598     (1,675)               5.47858251E-02
    599     (1,676)               5.48240849E-02
    600     (1,679)               5.47902397E-02
    601     (1,680)               5.47895708E-02
    602     (1,681)               5.47859589E-02
    603     (1,682)               5.47858251E-02
    604     (1,683)               5.47855575E-02
    605     (1,684)               5.47862264E-02
    606     (1,685)               5.47858251E-02
    607     (1,686)               5.48250214E-02
    608     (1,687)               5.48242187E-02
    609     (1,688)               5.47860926E-02
    610     (1,689)               5.47856913E-02
    611     (1,690)               5.47860926E-02
    612     (1,691)               5.47852900E-02
    613     (1,692)               5.47858251E-02
    614     (1,693)               5.47905072E-02
    615     (1,694)               5.47897046E-02
    616     (1,695)               5.48239512E-02
    617     (1,696)               5.48242187E-02
    618     (1,697)               5.47859589E-02
    619     (1,698)               5.47859589E-02
    620     (1,699)               5.47855575E-02
    621     (1,700)               5.47862264E-02
    622     (1,701)               5.47860926E-02
    623     (1,702)               5.47855575E-02
    624     (1,703)               5.47854238E-02
    625     (1,704)               5.48042861E-02
    626     (1,705)               1.36962222E-02
    627     (1,706)               1.37160210E-02
    628     (1,707)               1.36967573E-02
    629     (1,708)               1.36963559E-02
    630     (1,709)               1.36968910E-02
    631     (1,710)               1.36960884E-02
    632     (1,711)               1.37161547E-02
    633     (1,712)               1.36968910E-02
    634     (1,713)               5.48061590E-02
    635     (1,714)               5.47897046E-02
    636     (1,715)               5.47897046E-02
    637     (1,716)               5.47858251E-02
    638     (1,717)               5.47852900E-02
    639     (1,718)               5.47854238E-02
    640     (1,719)               5.47859589E-02
    641     (1,720)               5.48242187E-02
    642     (1,721)               5.48251551E-02
    643     (1,722)               5.47856913E-02
    644     (1,723)               5.47859589E-02
    645     (1,724)               5.47856913E-02
    646     (1,725)               5.47855575E-02
    647     (1,726)               5.47858251E-02
    648     (1,727)               5.47852900E-02
    649     (1,728)               5.47863602E-02
    650     (1,729)               5.48279644E-02
    651     (1,730)               5.48279644E-02
    652     (1,731)               5.47858251E-02
    653     (1,732)               5.47856913E-02
    654     (1,733)               5.47858251E-02
    655     (1,734)               5.47856913E-02
    656     (1,735)               5.47855575E-02
    657     (1,736)               5.47852900E-02
    658     (1,737)               5.47852900E-02
    659     (1,738)               5.47863602E-02
    660     (1,739)               5.48250214E-02
    661     (1,740)               5.48246200E-02
    662     (1,741)               5.47855575E-02
    663     (1,742)               5.47860926E-02
    664     (1,743)               5.47897046E-02
    665     (1,744)               5.47887681E-02
    666     (1,745)               5.47856913E-02
    667     (1,746)               5.47858251E-02
    668     (1,747)               5.47850224E-02
    669     (1,748)               5.48243525E-02
    670     (1,749)               5.48246200E-02
    671     (1,750)               5.47858251E-02
    672     (1,751)               5.47855575E-02
    673     (1,752)               5.47858251E-02
    674     (1,753)               5.47851562E-02
    675     (1,754)               5.47855575E-02
    676     (1,755)               5.47859589E-02
    677     (1,756)               5.47856913E-02
    678     (1,757)               5.47854238E-02
    679     (1,758)               5.48280982E-02
    680     (1,761)               5.48286333E-02
    681     (1,762)               5.47852900E-02
    682     (1,763)               5.47856913E-02
    683     (1,764)               5.47854238E-02
    684     (1,765)               5.47859589E-02
    685     (1,766)               5.47859589E-02
    686     (1,767)               5.47855575E-02
    687     (1,768)               5.47859589E-02
    688     (1,769)               5.48244863E-02
    689     (1,770)               5.48243525E-02
    690     (1,771)               5.47860926E-02
    691     (1,772)               5.47859589E-02
    692     (1,773)               5.47856913E-02
    693     (1,774)               5.47894370E-02
    694     (1,775)               5.47897046E-02
    695     (1,776)               5.47854238E-02
    696     (1,777)               5.47855575E-02
    697     (1,778)               5.48242187E-02
    698     (1,779)               5.48243525E-02
    699     (1,780)               5.47856913E-02
    700     (1,781)               5.47856913E-02
    701     (1,782)               5.47854238E-02
    702     (1,783)               5.47856913E-02
    703     (1,784)               5.47854238E-02
    704     (1,785)               5.47860926E-02
    705     (1,786)               5.47854238E-02
    706     (1,787)               5.48049550E-02
    707     (1,788)               1.36964897E-02
    708     (1,789)               1.37161547E-02
    709     (1,790)               1.36964897E-02
    710     (1,791)               1.36970248E-02
    711     (1,792)               1.36963559E-02
    712     (1,793)               1.36962222E-02
    713     (1,794)               1.37153521E-02
    714     (1,795)               1.36982288E-02
    715     (1,796)               5.48088345E-02
    716     (1,797)               5.47859589E-02
    717     (1,798)               5.47859589E-02
    718     (1,799)               5.47858251E-02
    719     (1,800)               5.47856913E-02
    720     (1,801)               5.47859589E-02
    721     (1,802)               5.47860926E-02
    722     (1,803)               5.48244863E-02
    723     (1,804)               5.48242187E-02
    724     (1,805)               5.47858251E-02
    725     (1,806)               5.47856913E-02
    726     (1,807)               5.47855575E-02
    727     (1,808)               5.47862264E-02
    728     (1,809)               5.47854238E-02
    729     (1,810)               5.47897046E-02
    730     (1,811)               5.47893032E-02
    731     (1,812)               5.48246200E-02
    732     (1,813)               5.48242187E-02
    733     (1,814)               5.47859589E-02
    734     (1,815)               5.47858251E-02
    735     (1,816)               5.47855575E-02
    736     (1,817)               5.47855575E-02
    737     (1,818)               5.47856913E-02
    738     (1,819)               5.47862264E-02
    739     (1,820)               5.47859589E-02
    740     (1,821)               5.47859589E-02
    741     (1,822)               5.48246200E-02
    742     (1,823)               5.48242187E-02
    743     (1,824)               5.47894370E-02
    744     (1,825)               5.47899721E-02
    745     (1,826)               5.47866277E-02
    746     (1,827)               5.47860926E-02
    747     (1,828)               5.47859589E-02
    748     (1,829)               5.47859589E-02
    749     (1,830)               5.47858251E-02
    750     (1,831)               5.48244863E-02
    751     (1,832)               5.48246200E-02
    752     (1,833)               5.47863602E-02
    753     (1,834)               5.47859589E-02
    754     (1,835)               5.47859589E-02
    755     (1,836)               5.47855575E-02
    756     (1,837)               5.47852900E-02
    757     (1,838)               5.47858251E-02
    758     (1,839)               5.47893032E-02
    759     (1,840)               5.47794038E-02
    760     (1,841)               5.48246200E-02
    761     (1,844)               5.48243525E-02
    762     (1,845)               5.48239512E-02
    763     (1,846)               5.47855575E-02
    764     (1,847)               5.47854238E-02
    765     (1,848)               5.47858251E-02
    766     (1,849)               5.47855575E-02
    767     (1,850)               5.47862264E-02
    768     (1,851)               5.47855575E-02
    769     (1,852)               5.47859589E-02
    770     (1,853)               5.48246200E-02
    771     (1,854)               5.48244863E-02
    772     (1,855)               5.47860926E-02
    773     (1,856)               5.47899721E-02
    774     (1,857)               5.47898384E-02
    775     (1,858)               5.47859589E-02
    776     (1,859)               5.47859589E-02
    777     (1,860)               5.47855575E-02
    778     (1,861)               5.47859589E-02
    779     (1,862)               5.48240849E-02
    780     (1,863)               5.48248876E-02
    781     (1,864)               5.47860926E-02
    782     (1,865)               5.47859589E-02
    783     (1,866)               5.47855575E-02
    784     (1,867)               5.47856913E-02
    785     (1,868)               5.47852900E-02
    786     (1,869)               5.47851562E-02
    787     (1,870)               5.47859589E-02
    788     (1,871)               5.48081656E-02
    789     (1,872)               1.36982288E-02
    790     (1,873)               1.37164223E-02
    791     (1,874)               1.36968910E-02
    792     (1,875)               1.36962222E-02
    793     (1,876)               1.36966235E-02
    794     (1,877)               1.36964897E-02
    795     (1,878)               1.37154859E-02
    796     (1,879)               1.36955533E-02
    797     (1,880)               5.48040186E-02
    798     (1,881)               5.47860926E-02
    799     (1,882)               5.47941192E-02
    800     (1,883)               5.47858251E-02
    801     (1,884)               5.47860926E-02
    802     (1,885)               5.47848887E-02
    803     (1,886)               5.47859589E-02
    804     (1,887)               5.48250214E-02
    805     (1,888)               5.48246200E-02
    806     (1,889)               5.47851562E-02
    807     (1,890)               5.47862264E-02
    808     (1,891)               5.47856913E-02
    809     (1,892)               5.47893032E-02
    810     (1,893)               5.47893032E-02
    811     (1,894)               5.47860926E-02
    812     (1,895)               5.47859589E-02
    813     (1,896)               5.48244863E-02
    814     (1,897)               5.48246200E-02
    815     (1,898)               5.47860926E-02
    816     (1,899)               5.47856913E-02
    817     (1,900)               5.47860926E-02
    818     (1,901)               5.47854238E-02
    819     (1,902)               5.47862264E-02
    820     (1,903)               5.47858251E-02
    821     (1,904)               5.47859589E-02
    822     (1,905)               5.47851562E-02
    823     (1,906)               5.48279644E-02
    824     (1,907)               5.48282320E-02
    825     (1,908)               5.47860926E-02
    826     (1,909)               5.47859589E-02
    827     (1,910)               5.47856913E-02
    828     (1,911)               5.47855575E-02
    829     (1,912)               5.47860926E-02
    830     (1,913)               5.47863602E-02
    831     (1,914)               5.47852900E-02
    832     (1,915)               5.48250214E-02
    833     (1,916)               5.48243525E-02
    834     (1,917)               5.47855575E-02
    835     (1,918)               5.47863602E-02
    836     (1,919)               5.47859589E-02
    837     (1,920)               5.47856913E-02
    838     (1,921)               5.47894370E-02
    839     (1,922)               5.47875642E-02
    840     (1,923)               1.36967573E-02
    841     (1,924)               1.36962222E-02
    842     (1,925)               1.36958208E-02
    843     (1,926)               1.36967573E-02
    844     (1,927)               5.47768621E-02
    845     (1,930)               5.47860926E-02
    846     (1,931)               5.48236836E-02
    847     (1,932)               5.48247538E-02
    848     (1,933)               5.47855575E-02
    849     (1,934)               5.47856913E-02
    850     (1,935)               5.47859589E-02
    851     (1,936)               5.47864940E-02
    852     (1,937)               5.47856913E-02
    853     (1,938)               5.47858251E-02
    854     (1,939)               5.47856913E-02
    855     (1,940)               5.48247538E-02
    856     (1,941)               5.48284995E-02
    857     (1,942)               5.47893032E-02
    858     (1,943)               5.47855575E-02
    859     (1,944)               5.47860926E-02
    860     (1,945)               5.47859589E-02
    861     (1,946)               5.47852900E-02
    862     (1,947)               5.47854238E-02
    863     (1,948)               5.47855575E-02
    864     (1,949)               5.48242187E-02
    865     (1,950)               5.48242187E-02
    866     (1,951)               5.47856913E-02
    867     (1,952)               5.47855575E-02
    868     (1,953)               5.47862264E-02
    869     (1,954)               5.47854238E-02
    870     (1,955)               5.47854238E-02
    871     (1,956)               5.47893032E-02
    872     (1,957)               5.47893032E-02
    873     (1,958)               5.48049550E-02
    874     (1,959)               1.36968910E-02
    875     (1,960)               1.37154859E-02
    876     (1,961)               1.37009043E-02
    877     (1,962)               3.41837007E-03
    878     (1,963)               3.42880458E-03
    879     (1,964)               3.41930650E-03
    880     (1,965)               3.41997538E-03
    881     (1,966)               1.36960884E-02
    882     (1,967)               1.36966235E-02
    883     (1,968)               1.37158872E-02
    884     (1,969)               1.36960884E-02
    885     (1,970)               5.47860926E-02
    886     (1,971)               1.36962222E-02
    887     (1,972)               1.36958208E-02
    888     (1,973)               1.36964897E-02
    889     (1,974)               1.36968910E-02
    890     (1,975)               5.48046875E-02
    891     (1,976)               5.47862264E-02
    892     (1,977)               5.47859589E-02
    893     (1,978)               5.47855575E-02
    894     (1,979)               5.47856913E-02
    895     (1,980)               5.48243525E-02
    896     (1,981)               5.48246200E-02
    897     (1,982)               5.47858251E-02
    898     (1,983)               5.47895708E-02
    899     (1,984)               5.47898384E-02
    900     (1,985)               5.47854238E-02
    901     (1,986)               5.47856913E-02
    902     (1,987)               5.47860926E-02
    903     (1,988)               5.47855575E-02
    904     (1,989)               5.48247538E-02
    905     (1,990)               5.48236836E-02
    906     (1,991)               5.47854238E-02
    907     (1,992)               5.47860926E-02
    908     (1,993)               5.47854238E-02
    909     (1,994)               5.47858251E-02
    910     (1,995)               5.47851562E-02
    911     (1,996)               5.47862264E-02
    912     (1,997)               5.47897046E-02
    913     (1,998)               5.47898384E-02
    914     (1,999)               5.48250214E-02
    915     (1,1000)              5.48240849E-02
    916     (1,1001)              5.47859589E-02
    917     (1,1002)              5.47855575E-02
    918     (1,1003)              5.47854238E-02
    919     (1,1004)              5.47860926E-02
    920     (1,1005)              5.47862264E-02
    921     (1,1006)              5.47862264E-02
    922     (1,1007)              5.47863602E-02
    923     (1,1008)              5.48244863E-02
    924     (1,1009)              5.48238174E-02
    925     (1,1010)              5.47858251E-02
    926     (1,1011)              5.47856913E-02
    927     (1,1012)              5.47895708E-02
    928     (1,1013)              5.47982662E-02
    929     (1,1014)              1.36958208E-02
    930     (1,1015)              1.36904698E-02
    931     (1,1016)              1.36966235E-02
    932     (1,1017)              1.36972924E-02
    933     (1,1018)              3.42813570E-03
    934     (1,1019)              3.42920590E-03
    935     (1,1020)              3.41903895E-03
    936     (1,1021)              3.42920590E-03
    937     (1,1022)              1.36959546E-02
    938     (1,1023)              1.36918076E-02
    939     (1,1024)              1.36959546E-02
    940     (1,1025)              5.47767283E-02
    941     (1,1028)              5.47854238E-02
    942     (1,1029)              5.47856913E-02
    943     (1,1030)              5.48240849E-02
    944     (1,1031)              5.48246200E-02
    945     (1,1032)              5.47856913E-02
    946     (1,1033)              5.47855575E-02
    947     (1,1034)              5.47852900E-02
    948     (1,1035)              5.47854238E-02
    949     (1,1036)              5.47858251E-02
    950     (1,1037)              5.47855575E-02
    951     (1,1038)              5.47901059E-02
    952     (1,1039)              5.48290346E-02
    953     (1,1040)              5.48243525E-02
    954     (1,1041)              5.47860926E-02
    955     (1,1042)              5.47863602E-02
    956     (1,1043)              5.47858251E-02
    957     (1,1044)              5.47860926E-02
    958     (1,1045)              5.47854238E-02
    959     (1,1046)              5.47858251E-02
    960     (1,1047)              5.47859589E-02
    961     (1,1048)              5.48243525E-02
    962     (1,1049)              5.48240849E-02
    963     (1,1050)              5.47858251E-02
    964     (1,1051)              5.47852900E-02
    965     (1,1052)              5.47855575E-02
    966     (1,1053)              5.47897046E-02
    967     (1,1054)              5.47899721E-02
    968     (1,1055)              5.47855575E-02
    969     (1,1056)              5.47946543E-02
    970     (1,1057)              1.36964897E-02
    971     (1,1058)              1.37013056E-02
    972     (1,1059)              1.36962222E-02
    973     (1,1060)              1.36962222E-02
    974     (1,1061)              1.36962222E-02
    975     (1,1062)              1.37161547E-02
    976     (1,1063)              1.36972924E-02
    977     (1,1064)              1.36962222E-02
    978     (1,1065)              5.48145869E-02
    979     (1,1066)              1.36914062E-02
    980     (1,1067)              3.42947346E-03
    981     (1,1068)              3.42933968E-03
    982     (1,1069)              3.41957406E-03
    983     (1,1070)              3.42867080E-03
    984     (1,1071)              1.36964897E-02
    985     (1,1072)              1.36906036E-02
    986     (1,1073)              1.36960884E-02
    987     (1,1074)              1.36983626E-02
    988     (1,1075)              1.36979612E-02
    989     (1,1076)              1.36962222E-02
    990     (1,1077)              5.48049550E-02
    991     (1,1078)              5.47856913E-02
    992     (1,1079)              5.47862264E-02
    993     (1,1080)              5.47859589E-02
    994     (1,1081)              5.47859589E-02
    995     (1,1082)              5.48252889E-02
    996     (1,1083)              5.48279644E-02
    997     (1,1084)              5.47894370E-02
    998     (1,1085)              5.47856913E-02
    999     (1,1086)              5.47855575E-02
    1000    (1,1087)              5.47855575E-02
    1001    (1,1088)              5.47852900E-02
    1002    (1,1089)              5.47854238E-02
    1003    (1,1090)              5.47859589E-02
    1004    (1,1091)              5.48247538E-02
    1005    (1,1092)              5.48239512E-02
    1006    (1,1093)              5.47854238E-02
    1007    (1,1094)              5.47854238E-02
    1008    (1,1095)              5.47859589E-02
    1009    (1,1096)              5.47856913E-02
    1010    (1,1097)              5.47898384E-02
    1011    (1,1098)              5.47897046E-02
    1012    (1,1099)              5.47859589E-02
    1013    (1,1100)              5.47854238E-02
    1014    (1,1101)              5.48240849E-02
    1015    (1,1102)              5.48242187E-02
    1016    (1,1103)              5.47859589E-02
    1017    (1,1104)              5.47856913E-02
    1018    (1,1105)              5.47970622E-02
    1019    (1,1106)              5.47854238E-02
    1020    (1,1107)              5.47852900E-02
    1021    (1,1108)              5.47858251E-02
    1022    (1,1109)              5.47775310E-02
    1023    (1,1110)              5.48153895E-02
    1024    (1,1111)              5.48248876E-02
    1025    (1,1112)              5.47889019E-02
    1026    (1,1113)              5.47893032E-02
    1027    (1,1114)              5.47862264E-02
    1028    (1,1115)              5.47959920E-02
    1029    (1,1116)              5.47959920E-02
    1030    (1,1117)              5.47855575E-02
    1031    (1,1120)              5.47858251E-02
    1032    (1,1121)              5.47855575E-02
    1033    (1,1122)              5.47860926E-02
    1034    (1,1123)              5.48246200E-02
    1035    (1,1124)              5.48246200E-02
    1036    (1,1125)              5.47858251E-02
    1037    (1,1126)              5.47859589E-02
    1038    (1,1127)              5.47854238E-02
    1039    (1,1128)              5.47856913E-02
    1040    (1,1129)              5.47894370E-02
    1041    (1,1130)              5.47895708E-02
    1042    (1,1131)              5.47860926E-02
    1043    (1,1132)              5.48239512E-02
    1044    (1,1133)              5.48234160E-02
    1045    (1,1134)              5.47863602E-02
    1046    (1,1135)              5.47854238E-02
    1047    (1,1136)              5.47862264E-02
    1048    (1,1137)              5.47855575E-02
    1049    (1,1138)              5.47860926E-02
    1050    (1,1139)              5.47854238E-02
    1051    (1,1140)              5.47862264E-02
    1052    (1,1141)              5.48242187E-02
    1053    (1,1142)              5.48246200E-02
    1054    (1,1143)              5.47860926E-02
    1055    (1,1144)              5.47897046E-02
    1056    (1,1145)              5.47898384E-02
    1057    (1,1146)              5.47858251E-02
    1058    (1,1147)              5.47858251E-02
    1059    (1,1148)              5.47856913E-02
    1060    (1,1149)              5.48054901E-02
    1061    (1,1150)              1.36967573E-02
    1062    (1,1151)              1.36964897E-02
    1063    (1,1152)              1.36967573E-02
    1064    (1,1153)              1.36966235E-02
    1065    (1,1154)              5.48040186E-02
    1066    (1,1155)              1.36915400E-02
    1067    (1,1156)              3.43000856E-03
    1068    (1,1157)              3.43014233E-03
    1069    (1,1158)              3.41944028E-03
    1070    (1,1159)              3.42947346E-03
    1071    (1,1160)              1.37181614E-02
    1072    (1,1161)              3.41984161E-03
    1073    (1,1162)              3.41863763E-03
    1074    (1,1163)              3.42760060E-03
    1075    (1,1164)              3.41837007E-03
    1076    (1,1165)              1.36964897E-02
    1077    (1,1166)              1.36960884E-02
    1078    (1,1167)              1.37061216E-02
    1079    (1,1168)              1.36964897E-02
    1080    (1,1169)              1.36964897E-02
    1081    (1,1170)              1.36970248E-02
    1082    (1,1171)              1.37015732E-02
    1083    (1,1172)              1.36956871E-02
    1084    (1,1173)              5.48046875E-02
    1085    (1,1174)              5.47860926E-02
    1086    (1,1175)              5.47859589E-02
    1087    (1,1176)              5.47862264E-02
    1088    (1,1177)              5.47894370E-02
    1089    (1,1178)              5.48278306E-02
    1090    (1,1179)              5.48246200E-02
    1091    (1,1180)              5.47856913E-02
    1092    (1,1181)              5.47862264E-02
    1093    (1,1182)              5.47860926E-02
    1094    (1,1183)              5.47858251E-02
    1095    (1,1184)              5.47858251E-02
    1096    (1,1185)              5.47855575E-02
    1097    (1,1186)              5.47854238E-02
    1098    (1,1187)              5.48243525E-02
    1099    (1,1188)              5.48243525E-02
    1100    (1,1189)              5.47858251E-02
    1101    (1,1190)              5.47963934E-02
    1102    (1,1191)              5.47894370E-02
    1103    (1,1192)              5.47899721E-02
    1104    (1,1193)              5.47858251E-02
    1105    (1,1194)              5.47860926E-02
    1106    (1,1195)              5.47859589E-02
    1107    (1,1196)              5.47862264E-02
    1108    (1,1197)              5.48244863E-02
    1109    (1,1198)              5.48248876E-02
    1110    (1,1199)              5.47775310E-02
    1111    (1,1200)              1.36963559E-02
    1112    (1,1201)              1.36966235E-02
    1113    (1,1202)              1.36963559E-02
    1114    (1,1203)              1.36962222E-02
    1115    (1,1204)              5.48046875E-02
    1116    (1,1205)              5.47855575E-02
    1117    (1,1206)              5.47961258E-02
    1118    (1,1207)              1.36967573E-02
    1119    (1,1208)              1.36959546E-02
    1120    (1,1209)              1.36912725E-02
    1121    (1,1210)              3.42947346E-03
    1122    (1,1211)              3.42907213E-03
    1123    (1,1212)              3.41984161E-03
    1124    (1,1213)              3.42840325E-03
    1125    (1,1214)              1.36960884E-02
    1126    (1,1215)              1.36967573E-02
    1127    (1,1216)              1.36964897E-02
    1128    (1,1217)              1.36960884E-02
    1129    (1,1218)              5.48171286E-02
    1130    (1,1219)              5.48280982E-02
    1131    (1,1220)              5.47856913E-02
    1132    (1,1221)              5.47860926E-02
    1133    (1,1222)              5.47856913E-02
    1134    (1,1223)              5.47856913E-02
    1135    (1,1224)              5.47854238E-02
    1136    (1,1227)              5.47859589E-02
    1137    (1,1228)              5.47851562E-02
    1138    (1,1229)              5.47854238E-02
    1139    (1,1230)              5.47859589E-02
    1140    (1,1231)              5.48247538E-02
    1141    (1,1232)              5.48239512E-02
    1142    (1,1233)              5.47862264E-02
    1143    (1,1234)              5.47859589E-02
    1144    (1,1235)              5.47890357E-02
    1145    (1,1236)              5.47890357E-02
    1146    (1,1237)              5.47856913E-02
    1147    (1,1238)              5.47855575E-02
    1148    (1,1239)              5.47838184E-02
    1149    (1,1240)              1.36963559E-02
    1150    (1,1241)              1.37152183E-02
    1151    (1,1242)              1.36970248E-02
    1152    (1,1243)              1.36962222E-02
    1153    (1,1244)              5.48248876E-02
    1154    (1,1245)              5.47852900E-02
    1155    (1,1246)              5.47860926E-02
    1156    (1,1247)              5.47862264E-02
    1157    (1,1248)              5.47854238E-02
    1158    (1,1249)              5.47858251E-02
    1159    (1,1250)              5.47858251E-02
    1160    (1,1251)              5.47863602E-02
    1161    (1,1252)              5.48247538E-02
    1162    (1,1253)              5.48286333E-02
    1163    (1,1254)              5.47893032E-02
    1164    (1,1255)              5.47855575E-02
    1165    (1,1256)              5.47856913E-02
    1166    (1,1257)              5.47863602E-02
    1167    (1,1258)              5.47859589E-02
    1168    (1,1259)              5.47943867E-02
    1169    (1,1260)              1.36958208E-02
    1170    (1,1261)              1.36967573E-02
    1171    (1,1262)              1.36963559E-02
    1172    (1,1263)              1.36968910E-02
    1173    (1,1264)              1.36963559E-02
    1174    (1,1265)              1.36984963E-02
    1175    (1,1266)              1.36986301E-02
    1176    (1,1267)              1.36964897E-02
    1177    (1,1268)              1.36964897E-02
    1178    (1,1269)              1.37154859E-02
    1179    (1,1270)              1.36962222E-02
    1180    (1,1271)              1.36966235E-02
    1181    (1,1272)              3.41944028E-03
    1182    (1,1273)              3.41917273E-03
    1183    (1,1274)              3.42773437E-03
    1184    (1,1275)              3.41903895E-03
    1185    (1,1276)              1.37017070E-02
    1186    (1,1277)              1.37162885E-02
    1187    (1,1278)              1.36960884E-02
    1188    (1,1279)              3.41970783E-03
    1189    (1,1280)              3.41890518E-03
    1190    (1,1281)              3.42813570E-03
    1191    (1,1282)              3.41863763E-03
    1192    (1,1283)              1.37017070E-02
    1193    (1,1284)              1.36978275E-02
    1194    (1,1285)              1.36963559E-02
    1195    (1,1286)              1.36966235E-02
    1196    (1,1287)              1.36966235E-02
    1197    (1,1288)              1.37017070E-02
    1198    (1,1289)              1.36963559E-02
    1199    (1,1290)              5.47943867E-02
    1200    (1,1291)              5.47859589E-02
    1201    (1,1292)              5.47894370E-02
    1202    (1,1293)              5.47897046E-02
    1203    (1,1294)              5.47855575E-02
    1204    (1,1295)              5.48252889E-02
    1205    (1,1296)              5.48246200E-02
    1206    (1,1297)              5.47858251E-02
    1207    (1,1298)              5.47866277E-02
    1208    (1,1299)              5.47855575E-02
    1209    (1,1300)              5.47854238E-02
    1210    (1,1301)              5.47859589E-02
    1211    (1,1302)              5.47856913E-02
    1212    (1,1303)              5.47862264E-02
    1213    (1,1304)              5.48243525E-02
    1214    (1,1305)              5.48167273E-02
    1215    (1,1306)              1.36963559E-02
    1216    (1,1307)              1.36963559E-02
    1217    (1,1308)              1.37013056E-02
    1218    (1,1309)              1.36982288E-02
    1219    (1,1310)              5.48072292E-02
    1220    (1,1311)              5.47856913E-02
    1221    (1,1312)              5.47855575E-02
    1222    (1,1313)              5.47860926E-02
    1223    (1,1314)              5.47856913E-02
    1224    (1,1315)              5.47860926E-02
    1225    (1,1316)              5.47860926E-02
    1226    (1,1317)              5.48246200E-02
    1227    (1,1318)              5.48161922E-02
    1228    (1,1319)              1.36911387E-02
    1229    (1,1320)              3.42853703E-03
    1230    (1,1321)              3.42987478E-03
    1231    (1,1322)              3.41984161E-03
    1232    (1,1323)              3.42933968E-03
    1233    (1,1324)              1.36960884E-02
    1234    (1,1325)              1.36916738E-02
    1235    (1,1326)              1.36963559E-02
    1236    (1,1327)              1.36967573E-02
    1237    (1,1328)              1.36959546E-02
    1238    (1,1329)              1.36964897E-02
    1239    (1,1330)              5.48044199E-02
    1240    (1,1331)              5.48072292E-02
    1241    (1,1332)              1.36962222E-02
    1242    (1,1333)              1.36860552E-02
    1243    (1,1334)              1.36960884E-02
    1244    (1,1335)              1.37017070E-02
    1245    (1,1336)              3.42947346E-03
    1246    (1,1337)              3.42920590E-03
    1247    (1,1338)              3.41970783E-03
    1248    (1,1339)              3.42826947E-03
    1249    (1,1340)              1.36962222E-02
    1250    (1,1341)              1.36915400E-02
    1251    (1,1342)              1.36988977E-02
    1252    (1,1343)              5.47806078E-02
    1253    (1,1344)              5.48247538E-02
    1254    (1,1345)              5.48244863E-02
    1255    (1,1346)              5.47851562E-02
    1256    (1,1347)              5.47854238E-02
    1257    (1,1348)              5.47860926E-02
    1258    (1,1349)              5.47858251E-02
    1259    (1,1352)              5.47855575E-02
    1260    (1,1353)              5.47855575E-02
    1261    (1,1354)              5.47850224E-02
    1262    (1,1355)              5.47859589E-02
    1263    (1,1356)              5.47856913E-02
    1264    (1,1357)              5.48248876E-02
    1265    (1,1358)              5.48248876E-02
    1266    (1,1359)              5.47902397E-02
    1267    (1,1360)              5.47901059E-02
    1268    (1,1361)              5.47860926E-02
    1269    (1,1362)              5.47860926E-02
    1270    (1,1363)              5.47938516E-02
    1271    (1,1364)              1.36964897E-02
    1272    (1,1365)              1.37025096E-02
    1273    (1,1366)              1.36960884E-02
    1274    (1,1367)              1.36964897E-02
    1275    (1,1368)              3.41863763E-03
    1276    (1,1369)              3.42893835E-03
    1277    (1,1370)              3.41930650E-03
    1278    (1,1371)              3.41997538E-03
    1279    (1,1372)              1.36963559E-02
    1280    (1,1373)              1.37009043E-02
    1281    (1,1374)              1.36967573E-02
    1282    (1,1375)              5.48159246E-02
    1283    (1,1376)              5.48244863E-02
    1284    (1,1377)              5.47860926E-02
    1285    (1,1378)              5.47859589E-02
    1286    (1,1379)              5.47863602E-02
    1287    (1,1380)              5.47858251E-02
    1288    (1,1381)              5.47862264E-02
    1289    (1,1382)              5.47856913E-02
    1290    (1,1383)              5.47906410E-02
    1291    (1,1384)              5.48275631E-02
    1292    (1,1385)              5.48240849E-02
    1293    (1,1386)              5.47863602E-02
    1294    (1,1387)              5.47856913E-02
    1295    (1,1388)              5.47860926E-02
    1296    (1,1389)              5.47860926E-02
    1297    (1,1390)              5.47860926E-02
    1298    (1,1391)              5.48069616E-02
    1299    (1,1392)              1.36956871E-02
    1300    (1,1393)              1.36970248E-02
    1301    (1,1394)              1.36962222E-02
    1302    (1,1395)              1.36962222E-02
    1303    (1,1396)              5.47942529E-02
    1304    (1,1397)              1.36962222E-02
    1305    (1,1398)              3.42867080E-03
    1306    (1,1399)              3.42867080E-03
    1307    (1,1400)              3.42947346E-03
    1308    (1,1401)              3.42974101E-03
    1309    (1,1402)              1.36956871E-02
    1310    (1,1403)              1.36919413E-02
    1311    (1,1404)              1.36967573E-02
    1312    (1,1405)              1.36968910E-02
    1313    (1,1406)              1.37152183E-02
    1314    (1,1407)              1.36968910E-02
    1315    (1,1408)              3.41970783E-03
    1316    (1,1409)              3.41997538E-03
    1317    (1,1410)              3.42933968E-03
    1318    (1,1411)              3.41863763E-03
    1319    (1,1412)              1.37003692E-02
    1320    (1,1413)              1.36963559E-02
    1321    (1,1414)              1.36963559E-02
    1322    (1,1415)              5.47943867E-02
    1323    (1,1416)              5.47902397E-02
    1324    (1,1417)              5.47899721E-02
    1325    (1,1418)              5.47863602E-02
    1326    (1,1419)              5.47854238E-02
    1327    (1,1420)              5.47862264E-02
    1328    (1,1421)              5.48242187E-02
    1329    (1,1422)              5.48246200E-02
    1330    (1,1423)              5.47864940E-02
    1331    (1,1424)              5.47860926E-02
    1332    (1,1425)              5.47856913E-02
    1333    (1,1426)              5.47855575E-02
    1334    (1,1427)              5.47855575E-02
    1335    (1,1428)              5.47855575E-02
    1336    (1,1429)              5.47957245E-02
    1337    (1,1430)              1.36960884E-02
    1338    (1,1431)              1.37158872E-02
    1339    (1,1432)              1.36960884E-02
    1340    (1,1433)              1.36984963E-02
    1341    (1,1434)              3.41984161E-03
    1342    (1,1435)              3.41970783E-03
    1343    (1,1436)              3.42893835E-03
    1344    (1,1437)              3.41984161E-03
    1345    (1,1438)              1.37007705E-02
    1346    (1,1439)              1.37164223E-02
    1347    (1,1440)              1.36916738E-02
    1348    (1,1441)              1.36963559E-02
    1349    (1,1442)              1.36967573E-02
    1350    (1,1443)              3.42947346E-03
    1351    (1,1444)              3.42867080E-03
    1352    (1,1445)              3.41903895E-03
    1353    (1,1446)              3.42867080E-03
    1354    (1,1447)              1.36968910E-02
    1355    (1,1448)              5.47963934E-02
    1356    (1,1449)              5.47862264E-02
    1357    (1,1450)              5.47859589E-02
    1358    (1,1451)              5.47858251E-02
    1359    (1,1452)              5.47860926E-02
    1360    (1,1453)              5.47858251E-02
    1361    (1,1454)              5.47862264E-02
    1362    (1,1455)              5.48164597E-02
    1363    (1,1456)              5.48156571E-02
    1364    (1,1457)              5.47769959E-02
    1365    (1,1458)              1.36967573E-02
    1366    (1,1459)              1.36915400E-02
    1367    (1,1460)              1.37013056E-02
    1368    (1,1461)              3.42974101E-03
    1369    (1,1462)              3.41957406E-03
    1370    (1,1463)              3.42893835E-03
    1371    (1,1464)              3.42840325E-03
    1372    (1,1465)              1.36963559E-02
    1373    (1,1466)              1.36966235E-02
    1374    (1,1467)              1.36908711E-02
    1375    (1,1468)              1.36960884E-02
    1376    (1,1469)              1.37158872E-02
    1377    (1,1470)              3.41863763E-03
    1378    (1,1471)              3.41850385E-03
    1379    (1,1472)              3.42853703E-03
    1380    (1,1473)              3.41970783E-03
    1381    (1,1474)              1.36967573E-02
    1382    (1,1475)              1.37174925E-02
    1383    (1,1476)              1.37033123E-02
    1384    (1,1477)              1.36963559E-02
    1385    (1,1478)              1.36966235E-02
    1386    (1,1479)              1.36964897E-02
    1387    (1,1480)              5.47670965E-02
    1388    (1,1481)              5.47751230E-02
    1389    (1,1482)              5.48247538E-02
    1390    (1,1483)              5.48239512E-02
    1391    (1,1484)              5.47856913E-02
    1392    (1,1485)              5.47852900E-02
    1393    (1,1486)              5.47863602E-02
    1394    (1,1488)              5.47866277E-02
    1395    (1,1489)              5.47859589E-02
    1396    (1,1490)              5.47863602E-02
    1397    (1,1491)              5.47860926E-02
    1398    (1,1492)              5.47855575E-02
    1399    (1,1493)              5.47863602E-02
    1400    (1,1494)              5.48287671E-02
    1401    (1,1495)              5.48282320E-02
    1402    (1,1496)              5.47858251E-02
    1403    (1,1497)              5.47855575E-02
    1404    (1,1498)              5.47856913E-02
    1405    (1,1499)              5.47856913E-02
    1406    (1,1500)              5.47959920E-02
    1407    (1,1501)              5.47965271E-02
    1408    (1,1502)              5.47859589E-02
    1409    (1,1503)              5.48243525E-02
    1410    (1,1504)              5.48250214E-02
    1411    (1,1505)              5.47858251E-02
    1412    (1,1506)              5.47852900E-02
    1413    (1,1507)              5.47860926E-02
    1414    (1,1508)              5.47859589E-02
    1415    (1,1509)              5.47893032E-02
    1416    (1,1510)              5.47898384E-02
    1417    (1,1511)              5.47858251E-02
    1418    (1,1512)              5.48246200E-02
    1419    (1,1513)              5.48239512E-02
    1420    (1,1514)              5.47856913E-02
    1421    (1,1515)              5.47851562E-02
    1422    (1,1516)              5.47854238E-02
    1423    (1,1517)              5.47855575E-02
    1424    (1,1518)              5.48062928E-02
    1425    (1,1519)              1.36968910E-02
    1426    (1,1520)              1.36964897E-02
    1427    (1,1521)              1.36962222E-02
    1428    (1,1522)              1.36966235E-02
    1429    (1,1523)              5.47863602E-02
    1430    (1,1524)              1.36962222E-02
    1431    (1,1525)              3.42840325E-03
    1432    (1,1526)              3.41890518E-03
    1433    (1,1527)              3.42800192E-03
    1434    (1,1528)              3.42960723E-03
    1435    (1,1529)              1.36962222E-02
    1436    (1,1530)              1.36963559E-02
    1437    (1,1531)              1.36912725E-02
    1438    (1,1532)              1.37153521E-02
    1439    (1,1533)              1.36963559E-02
    1440    (1,1534)              1.36964897E-02
    1441    (1,1535)              5.48141855E-02
    1442    (1,1536)              5.47894370E-02
    1443    (1,1537)              5.47901059E-02
    1444    (1,1538)              5.47859589E-02
    1445    (1,1539)              5.47862264E-02
    1446    (1,1540)              5.47859589E-02
    1447    (1,1541)              5.47860926E-02
    1448    (1,1542)              5.47755244E-02
    1449    (1,1543)              5.48136504E-02
    1450    (1,1544)              5.48255565E-02
    1451    (1,1545)              5.47858251E-02
    1452    (1,1546)              5.47858251E-02
    1453    (1,1547)              5.47858251E-02
    1454    (1,1548)              5.47854238E-02
    1455    (1,1549)              5.47856913E-02
    1456    (1,1550)              5.47897046E-02
    1457    (1,1551)              5.47990689E-02
    1458    (1,1552)              5.48235498E-02
    1459    (1,1553)              1.36927440E-02
    1460    (1,1554)              1.36962222E-02
    1461    (1,1555)              1.37157534E-02
    1462    (1,1556)              1.36963559E-02
    1463    (1,1557)              5.47967947E-02
    1464    (1,1558)              5.47858251E-02
    1465    (1,1559)              5.47859589E-02
    1466    (1,1560)              5.47855575E-02
    1467    (1,1561)              5.47856913E-02
    1468    (1,1562)              5.47854238E-02
    1469    (1,1563)              5.47963934E-02
    1470    (1,1564)              1.36958208E-02
    1471    (1,1565)              1.36972924E-02
    1472    (1,1566)              1.37007705E-02
    1473    (1,1567)              3.41957406E-03
    1474    (1,1568)              3.42853703E-03
    1475    (1,1569)              3.41863763E-03
    1476    (1,1570)              3.41903895E-03
    1477    (1,1571)              1.36963559E-02
    1478    (1,1572)              1.37162885E-02
    1479    (1,1573)              1.36970248E-02
    1480    (1,1574)              1.36964897E-02
    1481    (1,1575)              1.36967573E-02
    1482    (1,1576)              1.36967573E-02
    1483    (1,1577)              1.37165561E-02
    1484    (1,1578)              1.36927440E-02
    1485    (1,1579)              3.41997538E-03
    1486    (1,1580)              3.41970783E-03
    1487    (1,1581)              3.42933968E-03
    1488    (1,1582)              3.41890518E-03
    1489    (1,1583)              1.37058540E-02
    1490    (1,1584)              3.42867080E-03
    1491    (1,1585)              3.42826947E-03
    1492    (1,1586)              3.41917273E-03
    1493    (1,1587)              3.42960723E-03
    1494    (1,1588)              3.41970783E-03
    1495    (1,1589)              3.41917273E-03
    1496    (1,1590)              3.42907213E-03
    1497    (1,1591)              3.41917273E-03
    1498    (1,1592)              1.36968910E-02
    1499    (1,1593)              1.36964897E-02
    1500    (1,1594)              3.42867080E-03
    1501    (1,1595)              3.42786815E-03
    1502    (1,1596)              3.41877140E-03
    1503    (1,1597)              3.42960723E-03
    1504    (1,1598)              1.36986301E-02
    1505    (1,1599)              1.36984963E-02
    1506    (1,1600)              1.36962222E-02
    1507    (1,1601)              1.36908711E-02
    1508    (1,1602)              1.36958208E-02
    1509    (1,1603)              5.48160584E-02
    1510    (1,1604)              1.36960884E-02
    1511    (1,1605)              1.36959546E-02
    1512    (1,1606)              1.36920751E-02
    1513    (1,1607)              3.42813570E-03
    1514    (1,1608)              3.42947346E-03
    1515    (1,1609)              3.41997538E-03
    1516    (1,1610)              3.42933968E-03
    1517    (1,1611)              1.36976937E-02
    1518    (1,1612)              1.36962222E-02
    1519    (1,1613)              1.36962222E-02
    1520    (1,1614)              1.36963559E-02
    1521    (1,1615)              5.47777985E-02
    1522    (1,1616)              5.48244863E-02
    1523    (1,1617)              5.48243525E-02
    1524    (1,1618)              5.47859589E-02
    1525    (1,1619)              5.47856913E-02
    1526    (1,1622)              5.47858251E-02
    1527    (1,1623)              5.47863602E-02
    1528    (1,1624)              5.47862264E-02
    1529    (1,1625)              5.47897046E-02
    1530    (1,1626)              5.47899721E-02
    1531    (1,1627)              5.48242187E-02
    1532    (1,1628)              5.48243525E-02
    1533    (1,1629)              5.47855575E-02
    1534    (1,1630)              5.47854238E-02
    1535    (1,1631)              5.47858251E-02
    1536    (1,1632)              5.47858251E-02
    1537    (1,1633)              5.47855575E-02
    1538    (1,1634)              5.47858251E-02
    1539    (1,1635)              5.47859589E-02
    1540    (1,1636)              5.48244863E-02
    1541    (1,1637)              5.48247538E-02
    1542    (1,1638)              5.47859589E-02
    1543    (1,1639)              5.47862264E-02
    1544    (1,1640)              5.47899721E-02
    1545    (1,1641)              5.47887681E-02
    1546    (1,1642)              5.47860926E-02
    1547    (1,1643)              5.47858251E-02
    1548    (1,1644)              5.47855575E-02
    1549    (1,1645)              5.48246200E-02
    1550    (1,1646)              5.48246200E-02
    1551    (1,1647)              5.47860926E-02
    1552    (1,1648)              5.47860926E-02
    1553    (1,1649)              5.47773972E-02
    1554    (1,1650)              1.36964897E-02
    1555    (1,1651)              1.36966235E-02
    1556    (1,1652)              1.36960884E-02
    1557    (1,1653)              1.36963559E-02
    1558    (1,1654)              1.37160210E-02
    1559    (1,1655)              1.36967573E-02
    1560    (1,1656)              1.36967573E-02
    1561    (1,1657)              1.37153521E-02
    1562    (1,1658)              5.47661601E-02
    1563    (1,1659)              5.48064265E-02
    1564    (1,1660)              1.36960884E-02
    1565    (1,1661)              1.36966235E-02
    1566    (1,1662)              1.36962222E-02
    1567    (1,1663)              1.36967573E-02
    1568    (1,1664)              1.36923427E-02
    1569    (1,1665)              1.37158872E-02
    1570    (1,1666)              3.42880458E-03
    1571    (1,1667)              3.41837007E-03
    1572    (1,1668)              3.42826947E-03
    1573    (1,1669)              3.42960723E-03
    1574    (1,1670)              1.36934129E-02
    1575    (1,1671)              5.48280982E-02
    1576    (1,1672)              5.47858251E-02
    1577    (1,1673)              5.47860926E-02
    1578    (1,1674)              5.47945205E-02
    1579    (1,1675)              5.47862264E-02
    1580    (1,1676)              5.47840860E-02
    1581    (1,1677)              1.36967573E-02
    1582    (1,1678)              1.36967573E-02
    1583    (1,1679)              1.36967573E-02
    1584    (1,1680)              1.36967573E-02
    1585    (1,1681)              1.36959546E-02
    1586    (1,1682)              1.36986301E-02
    1587    (1,1683)              1.36983626E-02
    1588    (1,1684)              1.36967573E-02
    1589    (1,1685)              1.36967573E-02
    1590    (1,1686)              1.37162885E-02
    1591    (1,1687)              1.36962222E-02
    1592    (1,1688)              1.36964897E-02
    1593    (1,1689)              5.48231485E-02
    1594    (1,1690)              5.47858251E-02
    1595    (1,1691)              5.47855575E-02
    1596    (1,1692)              5.47858251E-02
    1597    (1,1693)              5.47858251E-02
    1598    (1,1694)              5.47898384E-02
    1599    (1,1695)              5.47751230E-02
    1600    (1,1696)              5.47747217E-02
    1601    (1,1697)              5.48255565E-02
    1602    (1,1698)              5.48244863E-02
    1603    (1,1699)              5.47859589E-02
    1604    (1,1700)              5.47859589E-02
    1605    (1,1701)              5.47855575E-02
    1606    (1,1702)              5.47856913E-02
    1607    (1,1703)              5.47858251E-02
    1608    (1,1704)              5.47969285E-02
    1609    (1,1705)              1.36963559E-02
    1610    (1,1706)              1.37021083E-02
    1611    (1,1707)              1.36919413E-02
    1612    (1,1708)              3.42880458E-03
    1613    (1,1709)              3.42933968E-03
    1614    (1,1710)              3.41890518E-03
    1615    (1,1711)              3.42880458E-03
    1616    (1,1712)              1.36964897E-02
    1617    (1,1713)              1.36963559E-02
    1618    (1,1714)              1.36952857E-02
    1619    (1,1715)              1.36966235E-02
    1620    (1,1716)              1.36968910E-02
    1621    (1,1717)              1.37160210E-02
    1622    (1,1718)              1.37007705E-02
    1623    (1,1719)              3.41930650E-03
    1624    (1,1720)              3.42974101E-03
    1625    (1,1721)              3.41957406E-03
    1626    (1,1722)              3.41890518E-03
    1627    (1,1723)              3.42024293E-03
    1628    (1,1724)              3.41970783E-03
    1629    (1,1725)              3.42933968E-03
    1630    (1,1726)              3.41890518E-03
    1631    (1,1727)              3.42773437E-03
    1632    (1,1728)              3.42853703E-03
    1633    (1,1729)              3.41877140E-03
    1634    (1,1730)              3.42987478E-03
    1635    (1,1731)              1.37149508E-02
    1636    (1,1732)              1.36885969E-02
    1637    (1,1733)              3.41944028E-03
    1638    (1,1734)              3.42010916E-03
    1639    (1,1735)              3.42907213E-03
    1640    (1,1736)              3.41944028E-03
    1641    (1,1737)              1.37053189E-02
    1642    (1,1738)              3.42907213E-03
    1643    (1,1739)              3.42853703E-03
    1644    (1,1740)              3.41890518E-03
    1645    (1,1741)              3.42786815E-03
    1646    (1,1742)              3.41890518E-03
    1647    (1,1743)              3.41997538E-03
    1648    (1,1744)              3.42960723E-03
    1649    (1,1745)              3.41917273E-03
    1650    (1,1746)              3.42853703E-03
    1651    (1,1747)              3.41903895E-03
    1652    (1,1748)              3.42947346E-03
    1653    (1,1749)              3.43027611E-03
    1654    (1,1750)              1.36907374E-02
    1655    (1,1751)              1.37023758E-02
    1656    (1,1752)              1.36966235E-02
    1657    (1,1753)              5.47852900E-02
    1658    (1,1754)              1.37158872E-02
    1659    (1,1755)              1.36918076E-02
    1660    (1,1756)              1.36971586E-02
    1661    (1,1757)              1.37158872E-02
    1662    (1,1758)              5.47875642E-02
    1663    (1,1759)              5.47855575E-02
    1664    (1,1760)              5.47858251E-02
    1665    (1,1761)              5.48247538E-02
    1666    (1,1762)              5.48244863E-02
    1667    (1,1763)              5.47851562E-02
    1668    (1,1766)              5.47858251E-02
    1669    (1,1767)              5.47902397E-02
    1670    (1,1768)              5.47898384E-02
    1671    (1,1769)              5.47859589E-02
    1672    (1,1770)              5.47860926E-02
    1673    (1,1771)              5.48240849E-02
    1674    (1,1772)              5.48242187E-02
    1675    (1,1773)              5.47854238E-02
    1676    (1,1774)              5.47855575E-02
    1677    (1,1775)              5.47859589E-02
    1678    (1,1776)              5.47855575E-02
    1679    (1,1777)              5.47856913E-02
    1680    (1,1778)              5.47858251E-02
    1681    (1,1779)              5.47859589E-02
    1682    (1,1780)              5.48247538E-02
    1683    (1,1781)              5.48247538E-02
    1684    (1,1782)              5.47901059E-02
    1685    (1,1783)              5.47897046E-02
    1686    (1,1784)              5.47851562E-02
    1687    (1,1785)              5.47854238E-02
    1688    (1,1786)              5.47856913E-02
    1689    (1,1787)              5.47854238E-02
    1690    (1,1788)              5.47856913E-02
    1691    (1,1789)              5.48244863E-02
    1692    (1,1790)              5.48244863E-02
    1693    (1,1791)              5.47859589E-02
    1694    (1,1792)              5.47773972E-02
    1695    (1,1793)              1.36962222E-02
    1696    (1,1794)              1.36967573E-02
    1697    (1,1795)              1.36960884E-02
    1698    (1,1796)              1.36960884E-02
    1699    (1,1797)              1.36966235E-02
    1700    (1,1798)              1.36972924E-02
    1701    (1,1799)              1.36967573E-02
    1702    (1,1800)              1.36964897E-02
    1703    (1,1801)              1.37161547E-02
    1704    (1,1802)              1.36964897E-02
    1705    (1,1803)              1.36966235E-02
    1706    (1,1804)              1.37164223E-02
    1707    (1,1805)              5.47666952E-02
    1708    (1,1806)              5.47979987E-02
    1709    (1,1807)              1.36986301E-02
    1710    (1,1808)              1.36963559E-02
    1711    (1,1809)              1.36968910E-02
    1712    (1,1810)              1.36966235E-02
    1713    (1,1811)              5.48050888E-02
    1714    (1,1812)              5.48234160E-02
    1715    (1,1813)              5.47840860E-02
    1716    (1,1814)              1.36959546E-02
    1717    (1,1815)              1.36962222E-02
    1718    (1,1816)              1.36960884E-02
    1719    (1,1817)              1.36963559E-02
    1720    (1,1818)              5.47939854E-02
    1721    (1,1819)              1.37154859E-02
    1722    (1,1820)              1.36967573E-02
    1723    (1,1821)              1.36968910E-02
    1724    (1,1822)              1.37160210E-02
    1725    (1,1823)              1.36966235E-02
    1726    (1,1824)              1.36983626E-02
    1727    (1,1825)              1.36986301E-02
    1728    (1,1826)              1.36967573E-02
    1729    (1,1827)              1.36962222E-02
    1730    (1,1828)              1.37013056E-02
    1731    (1,1829)              1.36964897E-02
    1732    (1,1830)              1.36962222E-02
    1733    (1,1831)              3.41984161E-03
    1734    (1,1832)              3.42853703E-03
    1735    (1,1833)              3.41903895E-03
    1736    (1,1834)              3.41970783E-03
    1737    (1,1835)              1.36960884E-02
    1738    (1,1836)              1.37023758E-02
    1739    (1,1837)              1.36958208E-02
    1740    (1,1838)              5.48140517E-02
    1741    (1,1839)              5.48240849E-02
    1742    (1,1840)              5.47858251E-02
    1743    (1,1841)              5.47862264E-02
    1744    (1,1842)              5.47893032E-02
    1745    (1,1843)              5.47979987E-02
    1746    (1,1844)              1.36963559E-02
    1747    (1,1845)              1.36963559E-02
    1748    (1,1846)              1.36966235E-02
    1749    (1,1847)              1.36967573E-02
    1750    (1,1848)              1.37017070E-02
    1751    (1,1849)              1.36966235E-02
    1752    (1,1850)              3.41957406E-03
    1753    (1,1851)              3.41863763E-03
    1754    (1,1852)              3.42920590E-03
    1755    (1,1853)              3.41877140E-03
    1756    (1,1854)              1.37021083E-02
    1757    (1,1855)              5.47773972E-02
    1758    (1,1856)              5.48250214E-02
    1759    (1,1857)              5.48243525E-02
    1760    (1,1858)              5.47856913E-02
    1761    (1,1859)              5.47863602E-02
    1762    (1,1860)              5.47860926E-02
    1763    (1,1861)              5.47856913E-02
    1764    (1,1862)              5.47971960E-02
    1765    (1,1863)              1.36964897E-02
    1766    (1,1864)              1.36916738E-02
    1767    (1,1865)              1.36958208E-02
    1768    (1,1866)              1.36966235E-02
    1769    (1,1867)              5.47851562E-02
    1770    (1,1868)              1.36972924E-02
    1771    (1,1869)              3.42760060E-03
    1772    (1,1870)              3.41890518E-03
    1773    (1,1871)              3.42840325E-03
    1774    (1,1872)              3.42920590E-03
    1775    (1,1873)              1.36963559E-02
    1776    (1,1874)              1.36990315E-02
    1777    (1,1875)              1.36934129E-02
    1778    (1,1876)              1.37150845E-02
    1779    (1,1877)              1.37009043E-02
    1780    (1,1878)              3.41823630E-03
    1781    (1,1879)              3.42974101E-03
    1782    (1,1880)              3.41903895E-03
    1783    (1,1881)              3.42010916E-03
    1784    (1,1882)              1.36926102E-02
    1785    (1,1883)              1.36968910E-02
    1786    (1,1884)              1.37154859E-02
    1787    (1,1885)              1.36966235E-02
    1788    (1,1886)              5.47959920E-02
    1789    (1,1887)              5.47855575E-02
    1790    (1,1888)              5.47776648E-02
    1791    (1,1889)              5.47855575E-02
    1792    (1,1890)              5.47859589E-02
    1793    (1,1891)              5.47855575E-02
    1794    (1,1892)              5.47859589E-02
    1795    (1,1893)              5.48238174E-02
    1796    (1,1894)              5.48242187E-02
    1797    (1,1897)              5.47898384E-02
    1798    (1,1898)              5.47858251E-02
    1799    (1,1899)              5.47858251E-02
    1800    (1,1900)              5.47852900E-02
    1801    (1,1901)              5.47856913E-02
    1802    (1,1902)              5.48244863E-02
    1803    (1,1903)              5.48248876E-02
    1804    (1,1904)              5.47855575E-02
    1805    (1,1905)              5.47855575E-02
    1806    (1,1906)              5.47852900E-02
    1807    (1,1907)              5.47855575E-02
    1808    (1,1908)              5.47860926E-02
    1809    (1,1909)              5.47858251E-02
    1810    (1,1910)              5.47863602E-02
    1811    (1,1911)              5.48282320E-02
    1812    (1,1912)              5.48280982E-02
    1813    (1,1913)              5.47860926E-02
    1814    (1,1914)              5.47860926E-02
    1815    (1,1915)              5.47862264E-02
    1816    (1,1916)              5.47859589E-02
    1817    (1,1917)              5.47863602E-02
    1818    (1,1918)              5.47855575E-02
    1819    (1,1919)              5.47858251E-02
    1820    (1,1920)              5.48244863E-02
    1821    (1,1921)              5.48244863E-02
    1822    (1,1922)              5.47858251E-02
    1823    (1,1923)              5.47753906E-02
    1824    (1,1924)              5.47664276E-02
    1825    (1,1925)              1.36966235E-02
    1826    (1,1926)              1.36958208E-02
    1827    (1,1927)              1.36963559E-02
    1828    (1,1928)              1.36963559E-02
    1829    (1,1929)              1.37158872E-02
    1830    (1,1930)              1.36963559E-02
    1831    (1,1931)              1.36962222E-02
    1832    (1,1932)              1.37180276E-02
    1833    (1,1933)              1.36976937E-02
    1834    (1,1934)              1.36966235E-02
    1835    (1,1935)              1.36958208E-02
    1836    (1,1936)              1.36962222E-02
    1837    (1,1937)              1.36966235E-02
    1838    (1,1938)              1.36966235E-02
    1839    (1,1939)              1.36963559E-02
    1840    (1,1940)              1.36962222E-02
    1841    (1,1941)              1.36966235E-02
    1842    (1,1942)              1.36960884E-02
    1843    (1,1943)              1.36963559E-02
    1844    (1,1944)              1.36968910E-02
    1845    (1,1945)              1.36962222E-02
    1846    (1,1946)              1.37152183E-02
    1847    (1,1947)              1.36962222E-02
    1848    (1,1948)              1.36966235E-02
    1849    (1,1949)              1.36960884E-02
    1850    (1,1950)              1.36966235E-02
    1851    (1,1951)              1.37153521E-02
    1852    (1,1952)              1.36962222E-02
    1853    (1,1953)              1.36914062E-02
    1854    (1,1954)              3.42907213E-03
    1855    (1,1955)              3.42933968E-03
    1856    (1,1956)              3.41944028E-03
    1857    (1,1957)              3.42826947E-03
    1858    (1,1958)              1.36966235E-02
    1859    (1,1959)              1.36914062E-02
    1860    (1,1960)              1.36963559E-02
    1861    (1,1961)              1.36967573E-02
    1862    (1,1962)              1.36964897E-02
    1863    (1,1963)              1.36963559E-02
    1864    (1,1964)              1.36962222E-02
    1865    (1,1965)              1.36982288E-02
    1866    (1,1966)              1.36980950E-02
    1867    (1,1967)              1.36962222E-02
    1868    (1,1968)              1.37154859E-02
    1869    (1,1969)              1.36956871E-02
    1870    (1,1970)              1.36968910E-02
    1871    (1,1971)              1.37154859E-02
    1872    (1,1972)              1.36959546E-02
    1873    (1,1973)              1.36964897E-02
    1874    (1,1974)              1.36967573E-02
    1875    (1,1975)              1.36966235E-02
    1876    (1,1976)              1.36962222E-02
    1877    (1,1977)              1.36964897E-02
    1878    (1,1978)              1.36959546E-02
    1879    (1,1979)              1.36966235E-02
    1880    (1,1980)              5.47657587E-02
    1881    (1,1981)              5.48244863E-02
    1882    (1,1982)              5.48242187E-02
    1883    (1,1983)              5.47893032E-02
    1884    (1,1984)              5.47898384E-02
    1885    (1,1985)              5.47855575E-02
    1886    (1,1986)              5.48129815E-02
    1887    (1,1987)              1.36966235E-02
    1888    (1,1988)              1.36966235E-02
    1889    (1,1989)              1.36970248E-02
    1890    (1,1990)              1.36960884E-02
    1891    (1,1991)              5.47763270E-02
    1892    (1,1992)              5.47856913E-02
    1893    (1,1993)              5.48240849E-02
    1894    (1,1994)              5.48244863E-02
    1895    (1,1995)              5.47854238E-02
    1896    (1,1996)              5.47855575E-02
    1897    (1,1997)              5.47855575E-02
    1898    (1,1998)              5.47763270E-02
    1899    (1,1999)              1.37154859E-02
    1900    (1,2000)              1.36955533E-02
    1901    (1,2001)              1.36967573E-02
    1902    (1,2002)              3.42920590E-03
    1903    (1,2003)              3.42933968E-03
    1904    (1,2004)              3.42947346E-03
    1905    (1,2005)              3.42840325E-03
    1906    (1,2006)              1.36966235E-02
    1907    (1,2007)              1.36962222E-02
    1908    (1,2008)              1.36956871E-02
    1909    (1,2009)              1.36983626E-02
    1910    (1,2010)              1.36986301E-02
    1911    (1,2011)              1.36960884E-02
    1912    (1,2012)              1.36918076E-02
    1913    (1,2013)              3.42826947E-03
    1914    (1,2014)              3.42933968E-03
    1915    (1,2015)              3.41970783E-03
    1916    (1,2016)              3.42960723E-03
    1917    (1,2017)              1.36963559E-02
    1918    (1,2018)              1.37017070E-02
    1919    (1,2019)              1.36968910E-02
    1920    (1,2020)              1.36960884E-02
    1921    (1,2021)              1.36964897E-02
    1922    (1,2022)              3.42920590E-03
    1923    (1,2023)              3.42853703E-03
    1924    (1,2024)              3.42840325E-03
    1925    (1,2025)              3.42893835E-03
    1926    (1,2026)              1.36966235E-02
    1927    (1,2027)              1.36972924E-02
    1928    (1,2028)              1.36976937E-02
    1929    (1,2029)              1.36958208E-02
    1930    (1,2030)              1.37158872E-02
    1931    (1,2031)              1.36966235E-02
    1932    (1,2032)              5.47967947E-02
    1933    (1,2033)              5.47863602E-02
    1934    (1,2034)              5.47855575E-02
    1935    (1,2035)              5.47855575E-02
    1936    (1,2036)              5.47856913E-02
    1937    (1,2037)              5.47860926E-02
    1938    (1,2038)              5.47858251E-02
    1939    (1,2039)              5.48244863E-02
    1940    (1,2042)              5.47855575E-02
    1941    (1,2043)              5.47863602E-02
    1942    (1,2044)              5.47860926E-02
    1943    (1,2045)              5.47859589E-02
    1944    (1,2046)              5.47860926E-02
    1945    (1,2047)              5.48246200E-02
    1946    (1,2048)              5.48242187E-02
    1947    (1,2049)              5.47856913E-02
    1948    (1,2050)              5.47864940E-02
    1949    (1,2051)              5.47860926E-02
    1950    (1,2052)              5.47856913E-02
    1951    (1,2053)              5.47856913E-02
    1952    (1,2054)              5.47898384E-02
    1953    (1,2055)              5.47893032E-02
    1954    (1,2056)              5.48244863E-02
    1955    (1,2057)              5.48244863E-02
    1956    (1,2058)              5.47860926E-02
    1957    (1,2059)              5.47856913E-02
    1958    (1,2060)              5.47858251E-02
    1959    (1,2061)              5.47860926E-02
    1960    (1,2062)              5.47856913E-02
    1961    (1,2063)              5.47854238E-02
    1962    (1,2064)              5.47856913E-02
    1963    (1,2065)              5.48244863E-02
    1964    (1,2066)              5.48240849E-02
    1965    (1,2067)              5.47855575E-02
    1966    (1,2068)              5.47856913E-02
    1967    (1,2069)              5.47784674E-02
    1968    (1,2070)              5.47802065E-02
    1969    (1,2071)              5.47959920E-02
    1970    (1,2072)              5.47971960E-02
    1971    (1,2073)              5.47962596E-02
    1972    (1,2074)              5.47962596E-02
    1973    (1,2075)              5.48251551E-02
    1974    (1,2076)              5.48149882E-02
    1975    (1,2077)              5.47775310E-02
    1976    (1,2078)              5.47653574E-02
    1977    (1,2079)              1.36964897E-02
    1978    (1,2080)              1.36964897E-02
    1979    (1,2081)              1.36970248E-02
    1980    (1,2082)              1.36962222E-02
    1981    (1,2083)              1.37153521E-02
    1982    (1,2084)              1.36964897E-02
    1983    (1,2085)              1.36964897E-02
    1984    (1,2086)              1.37157534E-02
    1985    (1,2087)              1.36956871E-02
    1986    (1,2088)              1.36960884E-02
    1987    (1,2089)              1.36964897E-02
    1988    (1,2090)              1.36966235E-02
    1989    (1,2091)              1.36968910E-02
    1990    (1,2092)              1.36968910E-02
    1991    (1,2093)              1.36962222E-02
    1992    (1,2094)              1.36967573E-02
    1993    (1,2095)              5.47745879E-02
    1994    (1,2096)              5.48284995E-02
    1995    (1,2097)              5.48284995E-02
    1996    (1,2098)              5.47858251E-02
    1997    (1,2099)              5.47753906E-02
    1998    (1,2100)              1.36963559E-02
    1999    (1,2101)              1.36919413E-02
    2000    (1,2102)              1.36968910E-02
    2001    (1,2103)              3.42786815E-03
    2002    (1,2104)              3.41930650E-03
    2003    (1,2105)              3.42867080E-03
    2004    (1,2106)              3.42893835E-03
    2005    (1,2107)              1.37156196E-02
    2006    (1,2108)              1.36964897E-02
    2007    (1,2109)              1.36919413E-02
    2008    (1,2110)              1.37157534E-02
    2009    (1,2111)              5.47771297E-02
    2010    (1,2112)              5.47855575E-02
    2011    (1,2113)              5.47859589E-02
    2012    (1,2114)              5.48244863E-02
    2013    (1,2115)              5.48248876E-02
    2014    (1,2116)              5.47858251E-02
    2015    (1,2117)              5.47856913E-02
    2016    (1,2118)              5.47771297E-02
    2017    (1,2119)              1.36960884E-02
    2018    (1,2120)              1.36960884E-02
    2019    (1,2121)              1.36975599E-02
    2020    (1,2122)              1.36986301E-02
    2021    (1,2123)              5.48176637E-02
    2022    (1,2124)              1.36963559E-02
    2023    (1,2125)              1.36911387E-02
    2024    (1,2126)              1.36960884E-02
    2025    (1,2127)              1.36967573E-02
    2026    (1,2128)              5.47875642E-02
    2027    (1,2129)              5.47962596E-02
    2028    (1,2130)              5.48258240E-02
    2029    (1,2131)              5.48247538E-02
    2030    (1,2132)              5.47858251E-02
    2031    (1,2133)              5.47859589E-02
    2032    (1,2134)              5.47862264E-02
    2033    (1,2135)              5.47864940E-02
    2034    (1,2136)              5.47860926E-02
    2035    (1,2137)              5.47860926E-02
    2036    (1,2138)              5.47852900E-02
    2037    (1,2141)              5.47858251E-02
    2038    (1,2142)              5.47862264E-02
    2039    (1,2143)              5.47854238E-02
    2040    (1,2144)              5.47852900E-02
    2041    (1,2145)              5.47859589E-02
    2042    (1,2146)              5.48247538E-02
    2043    (1,2147)              5.48242187E-02
    2044    (1,2148)              5.47855575E-02
    2045    (1,2149)              5.47855575E-02
    2046    (1,2150)              5.47851562E-02
    2047    (1,2151)              5.47894370E-02
    2048    (1,2152)              5.47898384E-02
    2049    (1,2153)              5.47856913E-02
    2050    (1,2154)              5.47856913E-02
    2051    (1,2155)              5.48238174E-02
    2052    (1,2156)              5.48248876E-02
    2053    (1,2157)              5.47858251E-02
    2054    (1,2158)              5.47855575E-02
    2055    (1,2159)              5.47860926E-02
    2056    (1,2160)              5.47859589E-02
    2057    (1,2161)              5.47863602E-02
    2058    (1,2162)              5.47860926E-02
    2059    (1,2163)              5.47858251E-02
    2060    (1,2164)              5.48236836E-02
    2061    (1,2165)              5.48244863E-02
    2062    (1,2166)              5.47886344E-02
    2063    (1,2167)              5.47895708E-02
    2064    (1,2168)              5.47855575E-02
    2065    (1,2169)              5.47862264E-02
    2066    (1,2170)              5.47859589E-02
    2067    (1,2171)              5.47852900E-02
    2068    (1,2172)              5.47854238E-02
    2069    (1,2173)              5.47835509E-02
    2070    (1,2174)              1.36967573E-02
    2071    (1,2175)              1.37181614E-02
    2072    (1,2176)              1.36979612E-02
    2073    (1,2177)              1.36966235E-02
    2074    (1,2178)              5.48228809E-02
    2075    (1,2179)              5.47856913E-02
    2076    (1,2180)              5.47748555E-02
    2077    (1,2181)              5.47777985E-02
    2078    (1,2182)              1.37153521E-02
    2079    (1,2183)              1.36966235E-02
    2080    (1,2184)              1.36966235E-02
    2081    (1,2185)              1.37158872E-02
    2082    (1,2186)              1.36960884E-02
    2083    (1,2187)              1.36963559E-02
    2084    (1,2188)              1.36960884E-02
    2085    (1,2189)              1.36962222E-02
    2086    (1,2190)              5.47790025E-02
    2087    (1,2191)              5.47895708E-02
    2088    (1,2192)              5.48251551E-02
    2089    (1,2193)              5.48242187E-02
    2090    (1,2194)              5.47756581E-02
    2091    (1,2195)              1.36967573E-02
    2092    (1,2196)              1.36962222E-02
    2093    (1,2197)              1.36962222E-02
    2094    (1,2198)              1.36962222E-02
    2095    (1,2199)              5.47962596E-02
    2096    (1,2200)              5.47848887E-02
    2097    (1,2201)              5.47852900E-02
    2098    (1,2202)              5.47856913E-02
    2099    (1,2203)              5.47855575E-02
    2100    (1,2204)              5.48243525E-02
    2101    (1,2205)              5.48243525E-02
    2102    (1,2206)              5.47856913E-02
    2103    (1,2207)              5.47898384E-02
    2104    (1,2208)              5.47788687E-02
    2105    (1,2209)              5.47858251E-02
    2106    (1,2210)              5.47961258E-02
    2107    (1,2211)              5.47860926E-02
    2108    (1,2212)              5.47856913E-02
    2109    (1,2213)              5.47859589E-02
    2110    (1,2214)              5.48246200E-02
    2111    (1,2215)              5.48240849E-02
    2112    (1,2216)              5.47854238E-02
    2113    (1,2217)              5.47858251E-02
    2114    (1,2218)              5.47852900E-02
    2115    (1,2219)              5.47855575E-02
    2116    (1,2220)              5.47855575E-02
    2117    (1,2221)              5.47856913E-02
    2118    (1,2224)              5.47852900E-02
    2119    (1,2225)              5.47852900E-02
    2120    (1,2226)              5.47856913E-02
    2121    (1,2227)              5.47859589E-02
    2122    (1,2228)              5.47855575E-02
    2123    (1,2229)              5.48243525E-02
    2124    (1,2230)              5.48243525E-02
    2125    (1,2231)              5.47856913E-02
    2126    (1,2232)              5.47891695E-02
    2127    (1,2233)              5.47897046E-02
    2128    (1,2234)              5.47858251E-02
    2129    (1,2235)              5.47858251E-02
    2130    (1,2236)              5.47859589E-02
    2131    (1,2237)              5.47858251E-02
    2132    (1,2238)              5.48243525E-02
    2133    (1,2239)              5.48239512E-02
    2134    (1,2240)              5.47859589E-02
    2135    (1,2241)              5.47862264E-02
    2136    (1,2242)              5.47854238E-02
    2137    (1,2243)              5.47852900E-02
    2138    (1,2244)              5.47859589E-02
    2139    (1,2245)              5.47856913E-02
    2140    (1,2246)              5.47859589E-02
    2141    (1,2247)              5.48275631E-02
    2142    (1,2248)              5.48276969E-02
    2143    (1,2249)              5.47858251E-02
    2144    (1,2250)              5.47860926E-02
    2145    (1,2251)              5.47858251E-02
    2146    (1,2252)              5.47854238E-02
    2147    (1,2253)              5.47856913E-02
    2148    (1,2254)              5.47946543E-02
    2149    (1,2255)              1.36967573E-02
    2150    (1,2256)              1.37033123E-02
    2151    (1,2257)              1.36987639E-02
    2152    (1,2258)              1.36964897E-02
    2153    (1,2259)              3.41970783E-03
    2154    (1,2260)              3.42853703E-03
    2155    (1,2261)              3.41863763E-03
    2156    (1,2262)              3.41877140E-03
    2157    (1,2263)              1.36968910E-02
    2158    (1,2264)              1.37013056E-02
    2159    (1,2265)              1.36968910E-02
    2160    (1,2266)              5.48139180E-02
    2161    (1,2267)              5.48246200E-02
    2162    (1,2268)              5.47767283E-02
    2163    (1,2269)              1.36958208E-02
    2164    (1,2270)              1.36959546E-02
    2165    (1,2271)              1.36960884E-02
    2166    (1,2272)              1.36963559E-02
    2167    (1,2273)              1.36963559E-02
    2168    (1,2274)              1.36964897E-02
    2169    (1,2275)              1.36966235E-02
    2170    (1,2276)              1.36964897E-02
    2171    (1,2277)              5.48066941E-02
    2172    (1,2278)              5.47893032E-02
    2173    (1,2279)              5.47854238E-02
    2174    (1,2280)              5.47854238E-02
    2175    (1,2281)              5.48244863E-02
    2176    (1,2282)              5.48247538E-02
    2177    (1,2283)              5.47745879E-02
    2178    (1,2284)              1.36963559E-02
    2179    (1,2285)              1.36986301E-02
    2180    (1,2286)              1.37035798E-02
    2181    (1,2287)              1.36964897E-02
    2182    (1,2288)              5.47950556E-02
    2183    (1,2289)              5.47863602E-02
    2184    (1,2290)              5.47859589E-02
    2185    (1,2291)              5.47860926E-02
    2186    (1,2292)              5.47851562E-02
    2187    (1,2293)              5.48239512E-02
    2188    (1,2294)              5.48282320E-02
    2189    (1,2295)              5.47895708E-02
    2190    (1,2296)              5.47858251E-02
    2191    (1,2297)              5.47858251E-02
    2192    (1,2298)              5.47858251E-02
    2193    (1,2299)              5.47860926E-02
    2194    (1,2300)              5.47858251E-02
    2195    (1,2301)              5.47858251E-02
    2196    (1,2302)              5.47860926E-02
    2197    (1,2303)              5.48242187E-02
    2198    (1,2304)              5.48242187E-02
    2199    (1,2305)              5.47859589E-02
    2200    (1,2306)              5.47856913E-02
    2201    (1,2307)              5.47856913E-02
    2202    (1,2308)              5.47862264E-02
    2203    (1,2309)              5.47897046E-02
    2204    (1,2312)              5.47856913E-02
    2205    (1,2313)              5.47856913E-02
    2206    (1,2314)              5.47855575E-02
    2207    (1,2315)              5.47851562E-02
    2208    (1,2316)              5.47860926E-02
    2209    (1,2317)              5.48250214E-02
    2210    (1,2318)              5.48286333E-02
    2211    (1,2319)              5.47981324E-02
    2212    (1,2320)              5.47943867E-02
    2213    (1,2321)              5.47856913E-02
    2214    (1,2322)              5.47856913E-02
    2215    (1,2323)              5.47854238E-02
    2216    (1,2324)              5.47854238E-02
    2217    (1,2325)              5.47862264E-02
    2218    (1,2326)              5.48246200E-02
    2219    (1,2327)              5.48244863E-02
    2220    (1,2328)              5.47850224E-02
    2221    (1,2329)              5.47856913E-02
    2222    (1,2330)              5.47860926E-02
    2223    (1,2331)              5.47854238E-02
    2224    (1,2332)              5.47863602E-02
    2225    (1,2333)              5.47897046E-02
    2226    (1,2334)              5.47901059E-02
    2227    (1,2335)              5.48246200E-02
    2228    (1,2336)              5.48250214E-02
    2229    (1,2337)              5.47858251E-02
    2230    (1,2338)              5.47856913E-02
    2231    (1,2339)              5.47852900E-02
    2232    (1,2340)              5.47859589E-02
    2233    (1,2341)              5.47856913E-02
    2234    (1,2342)              5.47943867E-02
    2235    (1,2343)              5.47941192E-02
    2236    (1,2344)              5.47856913E-02
    2237    (1,2345)              5.48244863E-02
    2238    (1,2346)              5.48153895E-02
    2239    (1,2347)              1.36968910E-02
    2240    (1,2348)              1.36964897E-02
    2241    (1,2349)              1.36966235E-02
    2242    (1,2350)              1.36964897E-02
    2243    (1,2351)              1.36963559E-02
    2244    (1,2352)              1.36964897E-02
    2245    (1,2353)              1.36964897E-02
    2246    (1,2354)              1.36983626E-02
    2247    (1,2355)              5.47990689E-02
    2248    (1,2356)              5.47860926E-02
    2249    (1,2357)              5.47852900E-02
    2250    (1,2358)              5.47863602E-02
    2251    (1,2359)              5.47856913E-02
    2252    (1,2360)              5.48232823E-02
    2253    (1,2361)              1.36964897E-02
    2254    (1,2362)              1.36983626E-02
    2255    (1,2363)              1.37174925E-02
    2256    (1,2364)              1.36959546E-02
    2257    (1,2365)              3.41997538E-03
    2258    (1,2366)              3.41890518E-03
    2259    (1,2367)              3.42853703E-03
    2260    (1,2368)              3.41863763E-03
    2261    (1,2369)              1.37013056E-02
    2262    (1,2370)              1.36968910E-02
    2263    (1,2371)              1.36962222E-02
    2264    (1,2372)              5.47942529E-02
    2265    (1,2373)              5.47862264E-02
    2266    (1,2374)              5.47856913E-02
    2267    (1,2375)              5.47850224E-02
    2268    (1,2376)              5.47854238E-02
    2269    (1,2377)              5.47893032E-02
    2270    (1,2378)              5.48286333E-02
    2271    (1,2379)              5.48246200E-02
    2272    (1,2380)              5.47858251E-02
    2273    (1,2381)              5.47858251E-02
    2274    (1,2382)              5.47856913E-02
    2275    (1,2383)              5.47858251E-02
    2276    (1,2384)              5.47860926E-02
    2277    (1,2385)              5.47858251E-02
    2278    (1,2386)              5.47854238E-02
    2279    (1,2387)              5.47855575E-02
    2280    (1,2388)              5.48240849E-02
    2281    (1,2389)              5.48248876E-02
    2282    (1,2390)              5.47856913E-02
    2283    (1,2391)              5.47860926E-02
    2284    (1,2392)              5.47890357E-02
    2285    (1,2393)              5.47887681E-02
    2286    (1,2396)              5.47851562E-02
    2287    (1,2397)              5.47858251E-02
    2288    (1,2398)              5.47856913E-02
    2289    (1,2399)              5.47856913E-02
    2290    (1,2400)              5.47894370E-02
    2291    (1,2401)              5.48278306E-02
    2292    (1,2402)              1.36967573E-02
    2293    (1,2403)              1.36958208E-02
    2294    (1,2404)              1.37160210E-02
    2295    (1,2405)              1.36923427E-02
    2296    (1,2406)              1.36960884E-02
    2297    (1,2407)              1.36967573E-02
    2298    (1,2408)              3.42974101E-03
    2299    (1,2409)              3.42880458E-03
    2300    (1,2410)              3.41877140E-03
    2301    (1,2411)              3.42826947E-03
    2302    (1,2412)              1.36976937E-02
    2303    (1,2413)              5.47962596E-02
    2304    (1,2414)              5.47860926E-02
    2305    (1,2415)              5.47862264E-02
    2306    (1,2416)              5.47858251E-02
    2307    (1,2417)              5.47860926E-02
    2308    (1,2418)              5.47854238E-02
    2309    (1,2419)              5.48247538E-02
    2310    (1,2420)              5.48243525E-02
    2311    (1,2421)              5.47856913E-02
    2312    (1,2422)              5.47859589E-02
    2313    (1,2423)              5.47856913E-02
    2314    (1,2424)              5.47903735E-02
    2315    (1,2425)              5.47894370E-02
    2316    (1,2426)              5.47858251E-02
    2317    (1,2427)              5.47862264E-02
    2318    (1,2428)              5.48246200E-02
    2319    (1,2429)              5.48250214E-02
    2320    (1,2430)              5.47856913E-02
    2321    (1,2431)              5.47855575E-02
    2322    (1,2432)              5.47855575E-02
    2323    (1,2433)              5.47862264E-02
    2324    (1,2434)              5.47854238E-02
    2325    (1,2435)              5.47854238E-02
    2326    (1,2436)              5.47768621E-02
    2327    (1,2437)              5.47769959E-02
    2328    (1,2438)              5.48259578E-02
    2329    (1,2439)              1.36966235E-02
    2330    (1,2440)              1.37017070E-02
    2331    (1,2441)              1.37158872E-02
    2332    (1,2442)              3.41984161E-03
    2333    (1,2443)              3.41957406E-03
    2334    (1,2444)              3.42907213E-03
    2335    (1,2445)              3.41970783E-03
    2336    (1,2446)              1.36986301E-02
    2337    (1,2447)              1.36960884E-02
    2338    (1,2448)              1.37013056E-02
    2339    (1,2449)              1.36966235E-02
    2340    (1,2450)              5.47959920E-02
    2341    (1,2451)              5.47862264E-02
    2342    (1,2452)              5.47859589E-02
    2343    (1,2453)              5.47858251E-02
    2344    (1,2454)              5.47856913E-02
    2345    (1,2455)              5.47863602E-02
    2346    (1,2456)              5.48228809E-02
    2347    (1,2457)              5.48140517E-02
    2348    (1,2458)              5.47858251E-02
    2349    (1,2459)              5.47858251E-02
    2350    (1,2460)              5.47863602E-02
    2351    (1,2461)              5.47862264E-02
    2352    (1,2462)              5.47899721E-02
    2353    (1,2463)              5.47901059E-02
    2354    (1,2464)              5.47858251E-02
    2355    (1,2465)              5.48251551E-02
    2356    (1,2466)              5.48244863E-02
    2357    (1,2467)              5.47859589E-02
    2358    (1,2468)              5.47856913E-02
    2359    (1,2469)              5.47859589E-02
    2360    (1,2470)              5.47855575E-02
    2361    (1,2471)              5.47858251E-02
    2362    (1,2472)              5.47854238E-02
    2363    (1,2473)              5.47855575E-02
    2364    (1,2474)              5.47856913E-02
    2365    (1,2475)              5.48244863E-02
    2366    (1,2476)              5.48243525E-02
    2367    (1,2477)              5.47893032E-02
    2368    (1,2478)              5.47891695E-02
    2369    (1,2479)              5.47860926E-02
    2370    (1,2482)              5.47862264E-02
    2371    (1,2483)              5.47854238E-02
    2372    (1,2484)              5.47895708E-02
    2373    (1,2485)              5.47890357E-02
    2374    (1,2486)              5.47860926E-02
    2375    (1,2487)              5.48240849E-02
    2376    (1,2488)              1.36926102E-02
    2377    (1,2489)              1.36959546E-02
    2378    (1,2490)              1.37162885E-02
    2379    (1,2491)              1.36959546E-02
    2380    (1,2492)              5.47962596E-02
    2381    (1,2493)              5.47855575E-02
    2382    (1,2494)              5.47859589E-02
    2383    (1,2495)              5.47855575E-02
    2384    (1,2496)              5.47859589E-02
    2385    (1,2497)              5.47856913E-02
    2386    (1,2498)              5.47860926E-02
    2387    (1,2499)              5.48243525E-02
    2388    (1,2500)              5.48240849E-02
    2389    (1,2501)              5.47852900E-02
    2390    (1,2502)              5.47901059E-02
    2391    (1,2503)              5.47898384E-02
    2392    (1,2504)              5.47854238E-02
    2393    (1,2505)              5.47862264E-02
    2394    (1,2506)              5.47856913E-02
    2395    (1,2507)              5.47859589E-02
    2396    (1,2508)              5.48247538E-02
    2397    (1,2509)              5.48251551E-02
    2398    (1,2510)              5.47851562E-02
    2399    (1,2511)              5.47854238E-02
    2400    (1,2512)              5.47858251E-02
    2401    (1,2513)              5.47856913E-02
    2402    (1,2514)              5.47957245E-02
    2403    (1,2515)              1.36966235E-02
    2404    (1,2516)              1.36967573E-02
    2405    (1,2517)              1.36958208E-02
    2406    (1,2518)              1.36967573E-02
    2407    (1,2519)              1.37014394E-02
    2408    (1,2520)              1.36963559E-02
    2409    (1,2521)              3.41944028E-03
    2410    (1,2522)              3.41810252E-03
    2411    (1,2523)              3.42800192E-03
    2412    (1,2524)              3.41917273E-03
    2413    (1,2525)              1.37010381E-02
    2414    (1,2526)              5.47880993E-02
    2415    (1,2527)              1.36984963E-02
    2416    (1,2528)              1.37164223E-02
    2417    (1,2529)              1.36960884E-02
    2418    (1,2530)              1.36963559E-02
    2419    (1,2531)              1.36963559E-02
    2420    (1,2532)              1.36970248E-02
    2421    (1,2533)              1.37160210E-02
    2422    (1,2534)              1.36963559E-02
    2423    (1,2535)              5.48053563E-02
    2424    (1,2536)              5.47942529E-02
    2425    (1,2537)              5.47863602E-02
    2426    (1,2538)              5.47943867E-02
    2427    (1,2539)              5.47860926E-02
    2428    (1,2540)              5.47859589E-02
    2429    (1,2541)              5.47851562E-02
    2430    (1,2542)              5.48161922E-02
    2431    (1,2543)              5.48248876E-02
    2432    (1,2544)              5.47862264E-02
    2433    (1,2545)              5.47856913E-02
    2434    (1,2546)              5.47997378E-02
    2435    (1,2547)              5.47982662E-02
    2436    (1,2548)              5.47855575E-02
    2437    (1,2549)              5.47753906E-02
    2438    (1,2550)              5.47859589E-02
    2439    (1,2551)              5.48250214E-02
    2440    (1,2552)              5.48244863E-02
    2441    (1,2553)              5.47855575E-02
    2442    (1,2554)              5.47859589E-02
    2443    (1,2555)              5.47856913E-02
    2444    (1,2556)              5.47858251E-02
    2445    (1,2557)              5.47856913E-02
    2446    (1,2558)              5.47859589E-02
    2447    (1,2559)              5.47856913E-02
    2448    (1,2560)              5.47850224E-02
    2449    (1,2561)              5.48276969E-02
    2450    (1,2562)              5.48282320E-02
    2451    (1,2563)              5.47858251E-02
    2452    (1,2564)              5.47851562E-02
    2453    (1,2567)              5.47897046E-02
    2454    (1,2568)              5.47897046E-02
    2455    (1,2569)              5.47855575E-02
    2456    (1,2570)              5.47860926E-02
    2457    (1,2571)              5.47854238E-02
    2458    (1,2572)              5.48260916E-02
    2459    (1,2573)              5.48247538E-02
    2460    (1,2574)              5.47855575E-02
    2461    (1,2575)              5.47855575E-02
    2462    (1,2576)              5.47854238E-02
    2463    (1,2577)              5.47856913E-02
    2464    (1,2578)              5.47856913E-02
    2465    (1,2579)              5.47855575E-02
    2466    (1,2580)              5.47860926E-02
    2467    (1,2581)              5.48242187E-02
    2468    (1,2582)              5.48284995E-02
    2469    (1,2583)              5.47897046E-02
    2470    (1,2584)              5.47858251E-02
    2471    (1,2585)              5.47862264E-02
    2472    (1,2586)              5.47859589E-02
    2473    (1,2587)              5.47858251E-02
    2474    (1,2588)              5.47863602E-02
    2475    (1,2589)              5.47860926E-02
    2476    (1,2590)              5.48247538E-02
    2477    (1,2591)              5.48242187E-02
    2478    (1,2592)              5.47852900E-02
    2479    (1,2593)              5.47858251E-02
    2480    (1,2594)              5.47856913E-02
    2481    (1,2595)              5.47854238E-02
    2482    (1,2596)              5.48061590E-02
    2483    (1,2597)              1.36959546E-02
    2484    (1,2598)              1.36966235E-02
    2485    (1,2599)              1.36960884E-02
    2486    (1,2600)              1.36987639E-02
    2487    (1,2601)              5.47691031E-02
    2488    (1,2602)              5.48045537E-02
    2489    (1,2603)              1.36964897E-02
    2490    (1,2604)              1.37160210E-02
    2491    (1,2605)              1.36962222E-02
    2492    (1,2606)              1.36964897E-02
    2493    (1,2607)              1.36964897E-02
    2494    (1,2608)              1.37014394E-02
    2495    (1,2609)              1.37165561E-02
    2496    (1,2610)              3.41917273E-03
    2497    (1,2611)              3.41863763E-03
    2498    (1,2612)              3.42853703E-03
    2499    (1,2613)              3.41970783E-03
    2500    (1,2614)              1.36964897E-02
    2501    (1,2615)              1.36960884E-02
    2502    (1,2616)              1.37015732E-02
    2503    (1,2617)              1.36964897E-02
    2504    (1,2618)              5.47947881E-02
    2505    (1,2619)              1.36971586E-02
    2506    (1,2620)              1.36984963E-02
    2507    (1,2621)              1.36936804E-02
    2508    (1,2622)              1.36966235E-02
    2509    (1,2623)              5.47942529E-02
    2510    (1,2624)              5.47862264E-02
    2511    (1,2625)              5.47874304E-02
    2512    (1,2626)              1.36963559E-02
    2513    (1,2627)              1.36960884E-02
    2514    (1,2628)              1.36966235E-02
    2515    (1,2629)              1.36962222E-02
    2516    (1,2630)              1.36956871E-02
    2517    (1,2631)              1.37156196E-02
    2518    (1,2632)              1.36959546E-02
    2519    (1,2633)              1.36912725E-02
    2520    (1,2634)              5.48243525E-02
    2521    (1,2635)              5.47903735E-02
    2522    (1,2636)              1.36982288E-02
    2523    (1,2637)              1.36960884E-02
    2524    (1,2638)              1.36960884E-02
    2525    (1,2639)              1.37010381E-02
    2526    (1,2640)              1.36967573E-02
    2527    (1,2641)              1.36964897E-02
    2528    (1,2642)              3.42010916E-03
    2529    (1,2643)              3.42880458E-03
    2530    (1,2644)              3.41796875E-03
    2531    (1,2645)              3.41850385E-03
    2532    (1,2646)              1.36970248E-02
    2533    (1,2647)              5.48054901E-02
    2534    (1,2648)              1.36963559E-02
    2535    (1,2649)              1.36960884E-02
    2536    (1,2650)              1.36964897E-02
    2537    (1,2651)              1.37006368E-02
    2538    (1,2652)              5.47668289E-02
    2539    (1,2653)              5.47856913E-02
    2540    (1,2654)              5.48246200E-02
    2541    (1,2655)              5.48254227E-02
    2542    (1,2656)              5.47965271E-02
    2543    (1,2657)              5.47967947E-02
    2544    (1,2658)              5.47962596E-02
    2545    (1,2659)              5.47967947E-02
    2546    (1,2660)              5.47965271E-02
    2547    (1,2661)              5.47771297E-02
    2548    (1,2662)              5.47803403E-02
    2549    (1,2663)              5.47784674E-02
    2550    (1,2664)              5.48240849E-02
    2551    (1,2665)              5.48240849E-02
    2552    (1,2666)              5.47859589E-02
    2553    (1,2669)              5.47862264E-02
    2554    (1,2670)              5.47858251E-02
    2555    (1,2671)              5.47855575E-02
    2556    (1,2672)              5.47862264E-02
    2557    (1,2673)              5.47859589E-02
    2558    (1,2674)              5.48240849E-02
    2559    (1,2675)              5.48246200E-02
    2560    (1,2676)              5.47856913E-02
    2561    (1,2677)              5.47859589E-02
    2562    (1,2678)              5.47860926E-02
    2563    (1,2679)              5.47855575E-02
    2564    (1,2680)              5.47859589E-02
    2565    (1,2681)              5.47859589E-02
    2566    (1,2682)              5.47895708E-02
    2567    (1,2683)              5.48280982E-02
    2568    (1,2684)              5.48247538E-02
    2569    (1,2685)              5.47859589E-02
    2570    (1,2686)              5.47862264E-02
    2571    (1,2687)              5.47859589E-02
    2572    (1,2688)              5.47855575E-02
    2573    (1,2689)              5.47864940E-02
    2574    (1,2690)              5.47860926E-02
    2575    (1,2691)              5.47856913E-02
    2576    (1,2692)              5.48248876E-02
    2577    (1,2693)              5.48246200E-02
    2578    (1,2694)              5.47860926E-02
    2579    (1,2695)              5.47859589E-02
    2580    (1,2696)              5.47863602E-02
    2581    (1,2697)              5.47902397E-02
    2582    (1,2698)              5.48157908E-02
    2583    (1,2699)              1.36963559E-02
    2584    (1,2700)              1.36963559E-02
    2585    (1,2701)              1.36958208E-02
    2586    (1,2702)              1.36962222E-02
    2587    (1,2703)              5.47862264E-02
    2588    (1,2704)              1.36960884E-02
    2589    (1,2705)              1.36968910E-02
    2590    (1,2706)              1.37018407E-02
    2591    (1,2707)              3.41890518E-03
    2592    (1,2708)              3.42840325E-03
    2593    (1,2709)              3.41823630E-03
    2594    (1,2710)              3.41997538E-03
    2595    (1,2711)              1.36960884E-02
    2596    (1,2712)              1.37162885E-02
    2597    (1,2713)              1.37018407E-02
    2598    (1,2714)              3.41917273E-03
    2599    (1,2715)              3.42907213E-03
    2600    (1,2716)              3.41930650E-03
    2601    (1,2717)              3.41944028E-03
    2602    (1,2718)              1.36960884E-02
    2603    (1,2719)              1.36964897E-02
    2604    (1,2720)              1.37150845E-02
    2605    (1,2721)              1.36962222E-02
    2606    (1,2722)              1.36962222E-02
    2607    (1,2723)              1.36984963E-02
    2608    (1,2724)              1.36982288E-02
    2609    (1,2725)              1.36959546E-02
    2610    (1,2726)              3.42974101E-03
    2611    (1,2727)              3.41890518E-03
    2612    (1,2728)              3.42907213E-03
    2613    (1,2729)              3.42867080E-03
    2614    (1,2730)              1.36918076E-02
    2615    (1,2731)              1.36970248E-02
    2616    (1,2732)              1.36968910E-02
    2617    (1,2733)              5.47951894E-02
    2618    (1,2734)              5.47962596E-02
    2619    (1,2735)              1.36968910E-02
    2620    (1,2736)              1.36916738E-02
    2621    (1,2737)              1.36962222E-02
    2622    (1,2738)              1.36964897E-02
    2623    (1,2739)              3.43027611E-03
    2624    (1,2740)              3.42933968E-03
    2625    (1,2741)              3.41984161E-03
    2626    (1,2742)              3.42786815E-03
    2627    (1,2743)              1.36955533E-02
    2628    (1,2744)              1.36910049E-02
    2629    (1,2745)              1.37010381E-02
    2630    (1,2746)              1.36971586E-02
    2631    (1,2747)              3.42880458E-03
    2632    (1,2748)              3.41890518E-03
    2633    (1,2749)              3.42773437E-03
    2634    (1,2750)              3.42907213E-03
    2635    (1,2751)              1.36959546E-02
    2636    (1,2752)              1.36968910E-02
    2637    (1,2753)              1.36914062E-02
    2638    (1,2754)              1.37156196E-02
    2639    (1,2755)              1.36960884E-02
    2640    (1,2756)              1.36935466E-02
    2641    (1,2757)              1.36987639E-02
    2642    (1,2758)              1.36962222E-02
    2643    (1,2759)              1.37158872E-02
    2644    (1,2760)              1.36968910E-02
    2645    (1,2761)              1.36966235E-02
    2646    (1,2762)              1.36962222E-02
    2647    (1,2763)              1.36970248E-02
    2648    (1,2764)              1.36963559E-02
    2649    (1,2765)              1.37017070E-02
    2650    (1,2766)              1.36967573E-02
    2651    (1,2767)              1.36964897E-02
    2652    (1,2768)              1.36963559E-02
    2653    (1,2769)              5.47852900E-02
    2654    (1,2770)              1.37161547E-02
    2655    (1,2771)              3.42010916E-03
    2656    (1,2772)              3.41984161E-03
    2657    (1,2773)              3.42947346E-03
    2658    (1,2774)              3.41850385E-03
    2659    (1,2775)              1.36970248E-02
    2660    (1,2776)              1.37149508E-02
    2661    (1,2777)              1.37003692E-02
    2662    (1,2778)              1.36959546E-02
    2663    (1,2779)              1.36970248E-02
    2664    (1,2780)              1.36971586E-02
    2665    (1,2781)              5.47670965E-02
    2666    (1,2782)              5.47882330E-02
    2667    (1,2783)              1.36966235E-02
    2668    (1,2784)              1.37161547E-02
    2669    (1,2785)              1.36966235E-02
    2670    (1,2786)              1.36966235E-02
    2671    (1,2787)              1.36964897E-02
    2672    (1,2788)              1.36966235E-02
    2673    (1,2789)              1.37160210E-02
    2674    (1,2790)              1.36968910E-02
    2675    (1,2791)              1.36958208E-02
    2676    (1,2792)              1.36959546E-02
    2677    (1,2793)              1.36959546E-02
    2678    (1,2794)              1.36970248E-02
    2679    (1,2795)              1.36964897E-02
    2680    (1,2796)              1.36962222E-02
    2681    (1,2797)              1.36960884E-02
    2682    (1,2798)              1.36962222E-02
    2683    (1,2799)              1.36963559E-02
    2684    (1,2800)              1.36968910E-02
    2685    (1,2801)              1.36966235E-02
    2686    (1,2802)              1.36963559E-02
    2687    (1,2803)              1.36968910E-02
    2688    (1,2804)              1.36970248E-02
    2689    (1,2805)              1.36959546E-02
    2690    (1,2806)              1.36968910E-02
    2691    (1,2807)              1.37153521E-02
    2692    (1,2808)              1.36966235E-02
    2693    (1,2809)              1.36968910E-02
    2694    (1,2810)              1.37180276E-02
    2695    (1,2811)              1.36980950E-02
    2696    (1,2812)              1.36966235E-02
    2697    (1,2813)              1.36966235E-02
    2698    (1,2814)              1.36962222E-02
    2699    (1,2815)              1.36956871E-02
    2700    (1,2816)              1.36968910E-02
    2701    (1,2817)              1.36963559E-02
    2702    (1,2818)              1.36968910E-02
    2703    (1,2819)              5.47649561E-02
    2704    (1,2820)              5.48242187E-02
    2705    (1,2821)              5.48242187E-02
    2706    (1,2824)              5.47856913E-02
    2707    (1,2825)              5.47854238E-02
    2708    (1,2826)              5.47856913E-02
    2709    (1,2827)              5.47852900E-02
    2710    (1,2828)              5.47855575E-02
    2711    (1,2829)              5.48242187E-02
    2712    (1,2830)              5.48239512E-02
    2713    (1,2831)              5.47855575E-02
    2714    (1,2832)              5.47855575E-02
    2715    (1,2833)              5.47851562E-02
    2716    (1,2834)              5.47856913E-02
    2717    (1,2835)              5.47902397E-02
    2718    (1,2836)              5.47898384E-02
    2719    (1,2837)              5.47862264E-02
    2720    (1,2838)              5.48246200E-02
    2721    (1,2839)              5.48247538E-02
    2722    (1,2840)              5.47863602E-02
    2723    (1,2841)              5.47859589E-02
    2724    (1,2842)              5.47860926E-02
    2725    (1,2843)              5.47859589E-02
    2726    (1,2844)              5.47852900E-02
    2727    (1,2845)              5.47859589E-02
    2728    (1,2846)              5.47854238E-02
    2729    (1,2847)              5.48242187E-02
    2730    (1,2848)              5.48244863E-02
    2731    (1,2849)              5.47859589E-02
    2732    (1,2850)              5.47894370E-02
    2733    (1,2851)              5.47790025E-02
    2734    (1,2852)              1.36966235E-02
    2735    (1,2853)              1.36955533E-02
    2736    (1,2854)              1.36970248E-02
    2737    (1,2855)              1.36966235E-02
    2738    (1,2856)              3.42840325E-03
    2739    (1,2857)              3.42893835E-03
    2740    (1,2858)              3.42974101E-03
    2741    (1,2859)              3.42920590E-03
    2742    (1,2860)              1.36959546E-02
    2743    (1,2861)              1.36958208E-02
    2744    (1,2862)              1.37154859E-02
    2745    (1,2863)              5.47749893E-02
    2746    (1,2864)              1.36967573E-02
    2747    (1,2865)              1.37013056E-02
    2748    (1,2866)              1.36967573E-02
    2749    (1,2867)              1.37010381E-02
    2750    (1,2868)              1.36959546E-02
    2751    (1,2869)              1.37021083E-02
    2752    (1,2870)              1.36964897E-02
    2753    (1,2871)              1.36963559E-02
    2754    (1,2872)              1.36966235E-02
    2755    (1,2873)              3.42920590E-03
    2756    (1,2874)              3.42907213E-03
    2757    (1,2875)              3.42907213E-03
    2758    (1,2876)              3.42907213E-03
    2759    (1,2877)              1.36991652E-02
    2760    (1,2878)              1.36964897E-02
    2761    (1,2879)              1.36966235E-02
    2762    (1,2880)              1.36964897E-02
    2763    (1,2881)              1.37158872E-02
    2764    (1,2882)              1.36959546E-02
    2765    (1,2883)              5.47838184E-02
    2766    (1,2884)              5.47858251E-02
    2767    (1,2885)              5.47771297E-02
    2768    (1,2886)              1.37157534E-02
    2769    (1,2887)              1.36964897E-02
    2770    (1,2888)              1.36967573E-02
    2771    (1,2889)              1.37158872E-02
    2772    (1,2890)              1.36971586E-02
    2773    (1,2891)              3.41917273E-03
    2774    (1,2892)              3.41850385E-03
    2775    (1,2893)              3.42880458E-03
    2776    (1,2894)              3.41997538E-03
    2777    (1,2895)              1.36962222E-02
    2778    (1,2896)              1.36971586E-02
    2779    (1,2897)              1.37015732E-02
    2780    (1,2898)              1.36970248E-02
    2781    (1,2899)              1.36915400E-02
    2782    (1,2900)              3.42947346E-03
    2783    (1,2901)              3.42920590E-03
    2784    (1,2902)              3.42010916E-03
    2785    (1,2903)              3.42920590E-03
    2786    (1,2904)              1.36932791E-02
    2787    (1,2905)              3.43014233E-03
    2788    (1,2906)              3.41863763E-03
    2789    (1,2907)              3.42880458E-03
    2790    (1,2908)              3.42853703E-03
    2791    (1,2909)              3.42947346E-03
    2792    (1,2910)              3.41877140E-03
    2793    (1,2911)              3.42880458E-03
    2794    (1,2912)              3.42867080E-03
    2795    (1,2913)              1.36916738E-02
    2796    (1,2914)              1.36924764E-02
    2797    (1,2915)              3.42933968E-03
    2798    (1,2916)              3.42853703E-03
    2799    (1,2917)              3.42826947E-03
    2800    (1,2918)              3.42853703E-03
    2801    (1,2919)              1.36958208E-02
    2802    (1,2920)              1.36970248E-02
    2803    (1,2921)              1.36926102E-02
    2804    (1,2922)              3.43027611E-03
    2805    (1,2923)              3.42893835E-03
    2806    (1,2924)              3.41877140E-03
    2807    (1,2925)              3.42813570E-03
    2808    (1,2926)              3.42907213E-03
    2809    (1,2927)              3.42800192E-03
    2810    (1,2928)              3.42853703E-03
    2811    (1,2929)              3.42853703E-03
    2812    (1,2930)              1.36920751E-02
    2813    (1,2931)              1.36975599E-02
    2814    (1,2932)              1.36967573E-02
    2815    (1,2933)              1.36963559E-02
    2816    (1,2934)              1.36966235E-02
    2817    (1,2935)              5.47941192E-02
    2818    (1,2936)              1.36963559E-02
    2819    (1,2937)              1.36966235E-02
    2820    (1,2938)              1.36964897E-02
    2821    (1,2939)              1.36962222E-02
    2822    (1,2940)              1.37158872E-02
    2823    (1,2941)              1.36964897E-02
    2824    (1,2942)              1.36967573E-02
    2825    (1,2943)              1.37157534E-02
    2826    (1,2944)              1.36963559E-02
    2827    (1,2945)              1.36983626E-02
    2828    (1,2946)              1.36983626E-02
    2829    (1,2947)              1.36964897E-02
    2830    (1,2948)              1.36962222E-02
    2831    (1,2949)              1.36964897E-02
    2832    (1,2950)              1.36962222E-02
    2833    (1,2951)              1.36964897E-02
    2834    (1,2952)              1.36963559E-02
    2835    (1,2953)              1.36967573E-02
    2836    (1,2954)              1.36962222E-02
    2837    (1,2955)              1.36964897E-02
    2838    (1,2956)              5.48133829E-02
    2839    (1,2957)              5.48141855E-02
    2840    (1,2958)              5.47756581E-02
    2841    (1,2959)              5.47748555E-02
    2842    (1,2960)              5.47687018E-02
    2843    (1,2961)              1.36978275E-02
    2844    (1,2962)              1.36967573E-02
    2845    (1,2963)              1.36966235E-02
    2846    (1,2964)              1.36956871E-02
    2847    (1,2965)              1.37160210E-02
    2848    (1,2966)              1.36960884E-02
    2849    (1,2967)              1.36966235E-02
    2850    (1,2968)              1.37158872E-02
    2851    (1,2969)              1.36959546E-02
    2852    (1,2970)              1.36963559E-02
    2853    (1,2971)              1.36960884E-02
    2854    (1,2972)              1.36958208E-02
    2855    (1,2973)              1.36963559E-02
    2856    (1,2974)              1.36956871E-02
    2857    (1,2975)              1.36968910E-02
    2858    (1,2976)              1.36964897E-02
    2859    (1,2977)              5.47669627E-02
    2860    (1,2978)              5.48246200E-02
    2861    (1,2981)              5.47854238E-02
    2862    (1,2982)              5.47858251E-02
    2863    (1,2983)              5.47859589E-02
    2864    (1,2984)              5.47859589E-02
    2865    (1,2985)              5.47856913E-02
    2866    (1,2986)              5.48247538E-02
    2867    (1,2987)              5.48236836E-02
    2868    (1,2988)              5.47856913E-02
    2869    (1,2989)              5.47854238E-02
    2870    (1,2990)              5.47891695E-02
    2871    (1,2991)              5.47898384E-02
    2872    (1,2992)              5.47855575E-02
    2873    (1,2993)              5.47859589E-02
    2874    (1,2994)              5.47862264E-02
    2875    (1,2995)              5.48247538E-02
    2876    (1,2996)              5.48240849E-02
    2877    (1,2997)              5.47854238E-02
    2878    (1,2998)              5.47859589E-02
    2879    (1,2999)              5.47862264E-02
    2880    (1,3000)              5.47858251E-02
    2881    (1,3001)              5.47864940E-02
    2882    (1,3002)              5.47860926E-02
    2883    (1,3003)              5.47859589E-02
    2884    (1,3004)              5.48248876E-02
    2885    (1,3005)              5.48284995E-02
    2886    (1,3006)              5.47895708E-02
    2887    (1,3007)              5.47852900E-02
    2888    (1,3008)              5.47763270E-02
    2889    (1,3009)              5.47756581E-02
    2890    (1,3010)              1.37158872E-02
    2891    (1,3011)              1.36964897E-02
    2892    (1,3012)              1.36968910E-02
    2893    (1,3013)              3.42867080E-03
    2894    (1,3014)              3.42813570E-03
    2895    (1,3015)              3.42893835E-03
    2896    (1,3016)              3.42974101E-03
    2897    (1,3017)              1.36966235E-02
    2898    (1,3018)              3.41984161E-03
    2899    (1,3019)              3.41930650E-03
    2900    (1,3020)              3.42907213E-03
    2901    (1,3021)              3.41903895E-03
    2902    (1,3022)              1.36972924E-02
    2903    (1,3023)              1.37007705E-02
    2904    (1,3024)              1.37007705E-02
    2905    (1,3025)              1.36991652E-02
    2906    (1,3026)              1.36979612E-02
    2907    (1,3027)              1.36963559E-02
    2908    (1,3028)              1.36964897E-02
    2909    (1,3029)              1.36962222E-02
    2910    (1,3030)              1.36960884E-02
    2911    (1,3031)              1.36962222E-02
    2912    (1,3032)              5.48131153E-02
    2913    (1,3033)              5.48250214E-02
    2914    (1,3034)              5.47858251E-02
    2915    (1,3035)              5.47765946E-02
    2916    (1,3036)              1.37017070E-02
    2917    (1,3037)              3.41850385E-03
    2918    (1,3038)              3.42840325E-03
    2919    (1,3039)              3.41877140E-03
    2920    (1,3040)              3.41997538E-03
    2921    (1,3041)              1.36967573E-02
    2922    (1,3042)              1.37014394E-02
    2923    (1,3043)              1.37149508E-02
    2924    (1,3044)              1.36918076E-02
    2925    (1,3045)              1.36966235E-02
    2926    (1,3046)              1.37180276E-02
    2927    (1,3047)              3.42960723E-03
    2928    (1,3048)              3.42960723E-03
    2929    (1,3049)              3.41944028E-03
    2930    (1,3050)              3.42960723E-03
    2931    (1,3051)              1.36915400E-02
    2932    (1,3052)              1.36920751E-02
    2933    (1,3053)              1.37006368E-02
    2934    (1,3054)              1.36970248E-02
    2935    (1,3055)              1.36960884E-02
    2936    (1,3056)              1.36968910E-02
    2937    (1,3057)              1.36960884E-02
    2938    (1,3058)              5.47953232E-02
    2939    (1,3059)              1.36974261E-02
    2940    (1,3060)              1.37160210E-02
    2941    (1,3061)              1.36960884E-02
    2942    (1,3062)              1.36958208E-02
    2943    (1,3063)              1.36963559E-02
    2944    (1,3064)              1.36962222E-02
    2945    (1,3065)              1.37160210E-02
    2946    (1,3066)              1.36962222E-02
    2947    (1,3067)              1.36968910E-02
    2948    (1,3068)              1.36962222E-02
    2949    (1,3069)              1.36960884E-02
    2950    (1,3070)              1.36970248E-02
    2951    (1,3071)              1.36962222E-02
    2952    (1,3072)              1.36964897E-02
    2953    (1,3073)              1.36966235E-02
    2954    (1,3074)              1.36963559E-02
    2955    (1,3075)              5.47875642E-02
    2956    (1,3076)              5.47949218E-02
    2957    (1,3077)              5.47946543E-02
    2958    (1,3078)              5.47949218E-02
    2959    (1,3079)              5.47854238E-02
    2960    (1,3080)              5.48244863E-02
    2961    (1,3081)              5.48243525E-02
    2962    (1,3082)              5.47894370E-02
    2963    (1,3083)              5.47897046E-02
    2964    (1,3084)              5.47772634E-02
    2965    (1,3085)              5.47771297E-02
    2966    (1,3086)              5.48056239E-02
    2967    (1,3087)              1.36964897E-02
    2968    (1,3088)              1.36964897E-02
    2969    (1,3089)              1.36960884E-02
    2970    (1,3090)              1.36964897E-02
    2971    (1,3091)              1.36959546E-02
    2972    (1,3092)              1.36964897E-02
    2973    (1,3093)              1.36964897E-02
    2974    (1,3094)              1.36966235E-02
    2975    (1,3095)              5.47664276E-02
    2976    (1,3098)              5.47858251E-02
    2977    (1,3099)              5.47856913E-02
    2978    (1,3100)              5.47855575E-02
    2979    (1,3101)              5.47859589E-02
    2980    (1,3102)              5.47858251E-02
    2981    (1,3103)              5.48243525E-02
    2982    (1,3104)              5.48238174E-02
    2983    (1,3105)              5.47897046E-02
    2984    (1,3106)              5.47893032E-02
    2985    (1,3107)              5.47859589E-02
    2986    (1,3108)              5.47855575E-02
    2987    (1,3109)              5.47859589E-02
    2988    (1,3110)              5.47856913E-02
    2989    (1,3111)              5.47859589E-02
    2990    (1,3112)              5.48248876E-02
    2991    (1,3113)              5.48248876E-02
    2992    (1,3114)              5.47855575E-02
    2993    (1,3115)              5.47860926E-02
    2994    (1,3116)              5.47860926E-02
    2995    (1,3117)              5.47859589E-02
    2996    (1,3118)              5.47855575E-02
    2997    (1,3119)              5.47851562E-02
    2998    (1,3120)              5.47893032E-02
    2999    (1,3121)              5.48284995E-02
    3000    (1,3122)              5.48244863E-02
    3001    (1,3123)              5.47859589E-02
    3002    (1,3124)              5.47752568E-02
    3003    (1,3125)              1.36963559E-02
    3004    (1,3126)              1.36914062E-02
    3005    (1,3127)              1.36971586E-02
    3006    (1,3128)              3.42880458E-03
    3007    (1,3129)              3.41917273E-03
    3008    (1,3130)              3.42826947E-03
    3009    (1,3131)              3.42947346E-03
    3010    (1,3132)              1.37011719E-02
    3011    (1,3133)              3.41984161E-03
    3012    (1,3134)              3.42920590E-03
    3013    (1,3135)              3.41917273E-03
    3014    (1,3136)              3.41863763E-03
    3015    (1,3137)              1.36918076E-02
    3016    (1,3138)              3.42786815E-03
    3017    (1,3139)              3.41890518E-03
    3018    (1,3140)              3.42813570E-03
    3019    (1,3141)              3.42987478E-03
    3020    (1,3142)              1.37154859E-02
    3021    (1,3143)              3.41930650E-03
    3022    (1,3144)              3.42010916E-03
    3023    (1,3145)              3.42933968E-03
    3024    (1,3146)              3.41877140E-03
    3025    (1,3147)              1.36935466E-02
    3026    (1,3148)              1.37160210E-02
    3027    (1,3149)              1.37013056E-02
    3028    (1,3150)              1.36911387E-02
    3029    (1,3151)              1.36967573E-02
    3030    (1,3152)              1.36966235E-02
    3031    (1,3153)              3.42933968E-03
    3032    (1,3154)              3.42853703E-03
    3033    (1,3155)              3.41930650E-03
    3034    (1,3156)              3.42853703E-03
    3035    (1,3157)              1.36966235E-02
    3036    (1,3158)              1.36927440E-02
    3037    (1,3159)              1.36958208E-02
    3038    (1,3160)              5.47748555E-02
    3039    (1,3161)              5.48250214E-02
    3040    (1,3162)              5.48243525E-02
    3041    (1,3163)              5.47859589E-02
    3042    (1,3164)              5.47787350E-02
    3043    (1,3165)              5.47699058E-02
    3044    (1,3166)              1.37157534E-02
    3045    (1,3167)              3.41997538E-03
    3046    (1,3168)              3.41930650E-03
    3047    (1,3169)              3.42880458E-03
    3048    (1,3170)              3.41917273E-03
    3049    (1,3171)              1.36959546E-02
    3050    (1,3172)              1.37166898E-02
    3051    (1,3173)              1.37017070E-02
    3052    (1,3174)              1.36962222E-02
    3053    (1,3175)              1.36966235E-02
    3054    (1,3176)              1.36960884E-02
    3055    (1,3177)              5.47854238E-02
    3056    (1,3178)              1.36971586E-02
    3057    (1,3179)              1.36960884E-02
    3058    (1,3180)              1.36964897E-02
    3059    (1,3181)              1.36967573E-02
    3060    (1,3182)              1.36962222E-02
    3061    (1,3183)              1.37157534E-02
    3062    (1,3184)              1.36967573E-02
    3063    (1,3185)              1.36959546E-02
    3064    (1,3186)              5.48167273E-02
    3065    (1,3187)              5.47768621E-02
    3066    (1,3188)              5.47856913E-02
    3067    (1,3189)              5.47856913E-02
    3068    (1,3190)              5.47859589E-02
    3069    (1,3191)              5.47855575E-02
    3070    (1,3192)              5.47851562E-02
    3071    (1,3193)              5.47855575E-02
    3072    (1,3194)              5.48282320E-02
    3073    (1,3195)              5.48280982E-02
    3074    (1,3196)              5.47858251E-02
    3075    (1,3197)              5.47858251E-02
    3076    (1,3198)              5.47858251E-02
    3077    (1,3199)              5.47854238E-02
    3078    (1,3200)              5.48056239E-02
    3079    (1,3201)              1.36963559E-02
    3080    (1,3202)              1.36964897E-02
    3081    (1,3203)              1.36970248E-02
    3082    (1,3204)              1.36968910E-02
    3083    (1,3205)              1.36963559E-02
    3084    (1,3206)              1.36980950E-02
    3085    (1,3207)              1.36983626E-02
    3086    (1,3208)              1.36964897E-02
    3087    (1,3212)              5.47854238E-02
    3088    (1,3213)              5.47855575E-02
    3089    (1,3214)              5.47856913E-02
    3090    (1,3215)              5.47860926E-02
    3091    (1,3216)              5.47859589E-02
    3092    (1,3217)              5.48287671E-02
    3093    (1,3218)              5.48284995E-02
    3094    (1,3219)              5.47854238E-02
    3095    (1,3220)              5.47854238E-02
    3096    (1,3221)              5.47855575E-02
    3097    (1,3222)              5.47856913E-02
    3098    (1,3223)              5.47852900E-02
    3099    (1,3224)              5.47858251E-02
    3100    (1,3225)              5.47856913E-02
    3101    (1,3226)              5.48244863E-02
    3102    (1,3227)              5.48243525E-02
    3103    (1,3228)              5.47859589E-02
    3104    (1,3229)              5.47852900E-02
    3105    (1,3230)              5.47860926E-02
    3106    (1,3231)              5.47858251E-02
    3107    (1,3232)              5.47897046E-02
    3108    (1,3233)              5.47898384E-02
    3109    (1,3234)              5.47858251E-02
    3110    (1,3235)              5.48244863E-02
    3111    (1,3236)              5.48244863E-02
    3112    (1,3237)              5.47744541E-02
    3113    (1,3238)              1.36964897E-02
    3114    (1,3239)              1.36963559E-02
    3115    (1,3240)              1.36964897E-02
    3116    (1,3241)              1.36964897E-02
    3117    (1,3242)              1.36964897E-02
    3118    (1,3243)              1.36984963E-02
    3119    (1,3244)              1.36983626E-02
    3120    (1,3245)              1.36968910E-02
    3121    (1,3246)              1.36964897E-02
    3122    (1,3247)              1.36960884E-02
    3123    (1,3248)              1.36962222E-02
    3124    (1,3249)              1.36959546E-02
    3125    (1,3250)              5.48036172E-02
    3126    (1,3251)              5.47942529E-02
    3127    (1,3252)              5.47855575E-02
    3128    (1,3253)              5.47856913E-02
    3129    (1,3254)              5.48244863E-02
    3130    (1,3255)              5.48282320E-02
    3131    (1,3256)              5.47890357E-02
    3132    (1,3257)              5.47855575E-02
    3133    (1,3258)              5.47765946E-02
    3134    (1,3259)              5.47965271E-02
    3135    (1,3260)              5.47832833E-02
    3136    (1,3261)              1.36966235E-02
    3137    (1,3262)              1.36964897E-02
    3138    (1,3263)              1.36967573E-02
    3139    (1,3264)              1.36960884E-02
    3140    (1,3265)              5.47883668E-02
    3141    (1,3266)              5.48254227E-02
    3142    (1,3267)              5.48243525E-02
    3143    (1,3268)              5.47856913E-02
    3144    (1,3269)              5.47858251E-02
    3145    (1,3270)              5.47859589E-02
    3146    (1,3271)              5.47856913E-02
    3147    (1,3272)              5.47862264E-02
    3148    (1,3273)              5.47901059E-02
    3149    (1,3274)              5.47894370E-02
    3150    (1,3275)              5.48251551E-02
    3151    (1,3276)              5.48244863E-02
    3152    (1,3277)              5.47859589E-02
    3153    (1,3278)              5.47858251E-02
    3154    (1,3279)              5.47858251E-02
    3155    (1,3280)              5.47856913E-02
    3156    (1,3281)              5.47959920E-02
    3157    (1,3282)              5.47939854E-02
    3158    (1,3285)              5.47858251E-02
    3159    (1,3286)              5.47855575E-02
    3160    (1,3287)              5.47855575E-02
    3161    (1,3288)              5.47889019E-02
    3162    (1,3289)              5.47898384E-02
    3163    (1,3290)              5.48236836E-02
    3164    (1,3291)              5.48240849E-02
    3165    (1,3292)              5.47852900E-02
    3166    (1,3293)              5.47855575E-02
    3167    (1,3294)              5.47858251E-02
    3168    (1,3295)              5.47858251E-02
    3169    (1,3296)              5.47855575E-02
    3170    (1,3297)              5.47856913E-02
    3171    (1,3298)              5.47855575E-02
    3172    (1,3299)              5.48240849E-02
    3173    (1,3300)              5.48243525E-02
    3174    (1,3301)              5.47863602E-02
    3175    (1,3302)              5.47856913E-02
    3176    (1,3303)              5.47898384E-02
    3177    (1,3304)              5.47893032E-02
    3178    (1,3305)              5.47859589E-02
    3179    (1,3306)              5.47858251E-02
    3180    (1,3307)              5.47859589E-02
    3181    (1,3308)              5.48236836E-02
    3182    (1,3309)              5.48243525E-02
    3183    (1,3310)              5.47764608E-02
    3184    (1,3311)              5.47661601E-02
    3185    (1,3312)              1.36964897E-02
    3186    (1,3313)              1.36966235E-02
    3187    (1,3314)              1.36967573E-02
    3188    (1,3315)              1.36962222E-02
    3189    (1,3316)              5.48041523E-02
    3190    (1,3317)              5.47850224E-02
    3191    (1,3318)              5.47848887E-02
    3192    (1,3319)              5.47856913E-02
    3193    (1,3320)              5.47899721E-02
    3194    (1,3321)              5.48286333E-02
    3195    (1,3322)              5.48224796E-02
    3196    (1,3323)              5.47951894E-02
    3197    (1,3324)              5.47949218E-02
    3198    (1,3325)              5.47834171E-02
    3199    (1,3326)              1.37161547E-02
    3200    (1,3327)              1.36967573E-02
    3201    (1,3328)              1.36964897E-02
    3202    (1,3329)              1.37152183E-02
    3203    (1,3330)              1.36970248E-02
    3204    (1,3331)              1.36964897E-02
    3205    (1,3332)              1.36959546E-02
    3206    (1,3333)              1.36966235E-02
    3207    (1,3334)              5.47771297E-02
    3208    (1,3335)              5.47862264E-02
    3209    (1,3336)              5.48240849E-02
    3210    (1,3337)              5.48246200E-02
    3211    (1,3338)              5.47856913E-02
    3212    (1,3339)              5.47859589E-02
    3213    (1,3340)              5.47854238E-02
    3214    (1,3341)              5.47890357E-02
    3215    (1,3342)              5.47890357E-02
    3216    (1,3343)              5.47860926E-02
    3217    (1,3344)              5.47864940E-02
    3218    (1,3345)              5.48250214E-02
    3219    (1,3346)              5.48244863E-02
    3220    (1,3347)              5.47855575E-02
    3221    (1,3348)              5.47859589E-02
    3222    (1,3349)              5.47851562E-02
    3223    (1,3350)              5.47856913E-02
    3224    (1,3351)              5.47858251E-02
    3225    (1,3354)              5.47852900E-02
    3226    (1,3355)              5.47893032E-02
    3227    (1,3356)              5.47887681E-02
    3228    (1,3357)              5.47860926E-02
    3229    (1,3358)              5.47852900E-02
    3230    (1,3359)              5.48242187E-02
    3231    (1,3360)              5.48242187E-02
    3232    (1,3361)              5.47854238E-02
    3233    (1,3362)              5.47855575E-02
    3234    (1,3363)              5.47859589E-02
    3235    (1,3364)              5.47856913E-02
    3236    (1,3365)              5.47855575E-02
    3237    (1,3366)              5.47858251E-02
    3238    (1,3367)              5.47860926E-02
    3239    (1,3368)              5.48247538E-02
    3240    (1,3369)              5.48239512E-02
    3241    (1,3370)              5.47895708E-02
    3242    (1,3371)              5.47898384E-02
    3243    (1,3372)              5.47855575E-02
    3244    (1,3373)              5.47855575E-02
    3245    (1,3374)              5.47863602E-02
    3246    (1,3375)              5.47856913E-02
    3247    (1,3376)              5.47863602E-02
    3248    (1,3377)              5.48236836E-02
    3249    (1,3378)              5.48243525E-02
    3250    (1,3379)              5.47771297E-02
    3251    (1,3380)              1.36964897E-02
    3252    (1,3381)              1.36964897E-02
    3253    (1,3382)              1.36964897E-02
    3254    (1,3383)              1.36959546E-02
    3255    (1,3384)              1.36960884E-02
    3256    (1,3385)              1.36968910E-02
    3257    (1,3386)              1.36958208E-02
    3258    (1,3387)              1.36962222E-02
    3259    (1,3388)              5.48056239E-02
    3260    (1,3389)              5.47854238E-02
    3261    (1,3390)              5.47893032E-02
    3262    (1,3391)              5.47794038E-02
    3263    (1,3392)              5.47835509E-02
    3264    (1,3393)              1.36966235E-02
    3265    (1,3394)              1.37158872E-02
    3266    (1,3395)              1.36966235E-02
    3267    (1,3396)              1.36967573E-02
    3268    (1,3397)              1.36958208E-02
    3269    (1,3398)              1.36959546E-02
    3270    (1,3399)              1.37154859E-02
    3271    (1,3400)              1.36956871E-02
    3272    (1,3401)              1.36968910E-02
    3273    (1,3402)              1.36963559E-02
    3274    (1,3403)              1.36960884E-02
    3275    (1,3404)              1.36968910E-02
    3276    (1,3405)              1.36963559E-02
    3277    (1,3406)              1.36968910E-02
    3278    (1,3407)              1.36962222E-02
    3279    (1,3408)              1.36958208E-02
    3280    (1,3409)              1.36962222E-02
    3281    (1,3410)              1.36959546E-02
    3282    (1,3411)              1.36963559E-02
    3283    (1,3412)              1.36956871E-02
    3284    (1,3413)              5.48069616E-02
    3285    (1,3414)              5.47854238E-02
    3286    (1,3415)              5.47858251E-02
    3287    (1,3416)              5.47860926E-02
    3288    (1,3417)              5.48246200E-02
    3289    (1,3418)              5.48243525E-02
    3290    (1,3419)              5.47863602E-02
    3291    (1,3420)              5.47894370E-02
    3292    (1,3421)              5.47895708E-02
    3293    (1,3422)              5.47854238E-02
    3294    (1,3423)              5.47856913E-02
    3295    (1,3424)              5.47860926E-02
    3296    (1,3425)              5.47855575E-02
    3297    (1,3426)              5.48240849E-02
    3298    (1,3427)              5.48248876E-02
    3299    (1,3428)              5.47852900E-02
    3300    (1,3429)              5.47858251E-02
    3301    (1,3430)              5.47859589E-02
    3302    (1,3431)              5.47855575E-02
    3303    (1,3434)              5.47895708E-02
    3304    (1,3435)              5.47855575E-02
    3305    (1,3436)              5.47862264E-02
    3306    (1,3437)              5.47856913E-02
    3307    (1,3438)              5.47856913E-02
    3308    (1,3439)              5.48246200E-02
    3309    (1,3440)              5.48248876E-02
    3310    (1,3441)              5.47855575E-02
    3311    (1,3442)              5.47864940E-02
    3312    (1,3443)              5.47866277E-02
    3313    (1,3444)              5.47860926E-02
    3314    (1,3445)              5.47858251E-02
    3315    (1,3446)              5.47856913E-02
    3316    (1,3447)              5.47860926E-02
    3317    (1,3448)              5.48282320E-02
    3318    (1,3449)              5.48287671E-02
    3319    (1,3450)              5.47856913E-02
    3320    (1,3451)              5.47859589E-02
    3321    (1,3452)              5.47862264E-02
    3322    (1,3453)              5.47856913E-02
    3323    (1,3454)              5.47859589E-02
    3324    (1,3455)              5.47860926E-02
    3325    (1,3456)              5.47862264E-02
    3326    (1,3457)              5.48248876E-02
    3327    (1,3458)              5.48244863E-02
    3328    (1,3459)              5.47668289E-02
    3329    (1,3460)              1.36968910E-02
    3330    (1,3461)              1.36970248E-02
    3331    (1,3462)              1.36958208E-02
    3332    (1,3463)              1.36966235E-02
    3333    (1,3464)              1.36963559E-02
    3334    (1,3465)              1.36968910E-02
    3335    (1,3466)              1.36959546E-02
    3336    (1,3467)              1.36960884E-02
    3337    (1,3468)              5.48077643E-02
    3338    (1,3469)              5.48069616E-02
    3339    (1,3470)              1.36964897E-02
    3340    (1,3471)              1.36966235E-02
    3341    (1,3472)              1.36958208E-02
    3342    (1,3473)              1.36959546E-02
    3343    (1,3474)              1.36964897E-02
    3344    (1,3475)              1.36967573E-02
    3345    (1,3476)              1.36963559E-02
    3346    (1,3477)              1.36958208E-02
    3347    (1,3478)              1.36967573E-02
    3348    (1,3479)              1.36970248E-02
    3349    (1,3480)              1.36962222E-02
    3350    (1,3481)              1.36963559E-02
    3351    (1,3482)              5.48164597E-02
    3352    (1,3483)              5.48163259E-02
    3353    (1,3484)              5.47764608E-02
    3354    (1,3485)              5.47764608E-02
    3355    (1,3486)              5.47850224E-02
    3356    (1,3487)              5.47856913E-02
    3357    (1,3488)              5.47850224E-02
    3358    (1,3489)              5.47848887E-02
    3359    (1,3490)              5.47854238E-02
    3360    (1,3491)              5.48244863E-02
    3361    (1,3492)              5.48279644E-02
    3362    (1,3493)              5.47889019E-02
    3363    (1,3494)              5.47860926E-02
    3364    (1,3495)              5.47856913E-02
    3365    (1,3496)              5.47860926E-02
    3366    (1,3497)              5.47860926E-02
    3367    (1,3498)              5.47855575E-02
    3368    (1,3499)              5.47856913E-02
    3369    (1,3500)              5.48240849E-02
    3370    (1,3501)              5.48239512E-02
    3371    (1,3502)              5.47854238E-02
    3372    (1,3505)              5.47858251E-02
    3373    (1,3506)              5.47859589E-02
    3374    (1,3507)              5.47858251E-02
    3375    (1,3508)              5.47855575E-02
    3376    (1,3509)              5.47858251E-02
    3377    (1,3510)              5.48247538E-02
    3378    (1,3511)              5.48247538E-02
    3379    (1,3512)              5.47854238E-02
    3380    (1,3513)              5.47855575E-02
    3381    (1,3514)              5.47851562E-02
    3382    (1,3515)              5.47855575E-02
    3383    (1,3516)              5.47851562E-02
    3384    (1,3517)              5.47897046E-02
    3385    (1,3518)              5.47893032E-02
    3386    (1,3519)              5.48246200E-02
    3387    (1,3520)              5.48244863E-02
    3388    (1,3521)              5.47858251E-02
    3389    (1,3522)              5.47858251E-02
    3390    (1,3523)              5.47855575E-02
    3391    (1,3524)              5.47863602E-02
    3392    (1,3525)              5.47863602E-02
    3393    (1,3526)              5.47866277E-02
    3394    (1,3527)              5.47855575E-02
    3395    (1,3528)              5.48244863E-02
    3396    (1,3529)              5.48247538E-02
    3397    (1,3530)              5.47656250E-02
    3398    (1,3531)              1.36963559E-02
    3399    (1,3532)              1.36963559E-02
    3400    (1,3533)              1.36962222E-02
    3401    (1,3534)              1.36987639E-02
    3402    (1,3535)              1.36987639E-02
    3403    (1,3536)              1.36966235E-02
    3404    (1,3537)              1.36960884E-02
    3405    (1,3538)              1.36959546E-02
    3406    (1,3539)              1.36963559E-02
    3407    (1,3540)              1.36966235E-02
    3408    (1,3541)              1.36960884E-02
    3409    (1,3542)              1.36958208E-02
    3410    (1,3543)              1.37164223E-02
    3411    (1,3544)              1.36968910E-02
    3412    (1,3545)              1.36962222E-02
    3413    (1,3546)              1.37156196E-02
    3414    (1,3547)              5.47880993E-02
    3415    (1,3548)              5.47963934E-02
    3416    (1,3549)              5.47856913E-02
    3417    (1,3550)              5.48239512E-02
    3418    (1,3551)              5.48239512E-02
    3419    (1,3552)              5.47859589E-02
    3420    (1,3553)              5.47856913E-02
    3421    (1,3554)              5.47856913E-02
    3422    (1,3555)              5.47858251E-02
    3423    (1,3556)              5.47858251E-02
    3424    (1,3557)              5.47855575E-02
    3425    (1,3558)              5.47901059E-02
    3426    (1,3559)              5.48280982E-02
    3427    (1,3560)              5.48243525E-02
    3428    (1,3561)              5.47856913E-02
    3429    (1,3562)              5.47864940E-02
    3430    (1,3563)              5.47856913E-02
    3431    (1,3564)              5.47859589E-02
    3432    (1,3565)              5.47860926E-02
    3433    (1,3566)              5.47859589E-02
    3434    (1,3567)              5.47858251E-02
    3435    (1,3570)              5.47864940E-02
    3436    (1,3571)              5.47855575E-02
    3437    (1,3572)              5.47851562E-02
    3438    (1,3573)              5.47854238E-02
    3439    (1,3574)              5.47854238E-02
    3440    (1,3575)              5.48246200E-02
    3441    (1,3576)              5.48242187E-02
    3442    (1,3577)              5.47855575E-02
    3443    (1,3578)              5.47854238E-02
    3444    (1,3579)              5.47855575E-02
    3445    (1,3580)              5.47901059E-02
    3446    (1,3581)              5.47901059E-02
    3447    (1,3582)              5.47858251E-02
    3448    (1,3583)              5.47854238E-02
    3449    (1,3584)              5.48242187E-02
    3450    (1,3585)              5.48240849E-02
    3451    (1,3586)              5.47848887E-02
    3452    (1,3587)              5.47855575E-02
    3453    (1,3588)              5.47858251E-02
    3454    (1,3589)              5.47852900E-02
    3455    (1,3590)              5.47855575E-02
    3456    (1,3591)              5.47855575E-02
    3457    (1,3592)              5.47852900E-02
    3458    (1,3593)              5.48246200E-02
    3459    (1,3594)              5.48287671E-02
    3460    (1,3595)              5.47794038E-02
    3461    (1,3596)              5.47775310E-02
    3462    (1,3597)              5.47771297E-02
    3463    (1,3598)              5.47771297E-02
    3464    (1,3599)              5.47855575E-02
    3465    (1,3600)              5.47858251E-02
    3466    (1,3601)              5.47858251E-02
    3467    (1,3602)              5.47860926E-02
    3468    (1,3603)              5.48247538E-02
    3469    (1,3604)              5.48247538E-02
    3470    (1,3605)              5.47860926E-02
    3471    (1,3606)              5.47855575E-02
    3472    (1,3607)              5.47863602E-02
    3473    (1,3608)              5.47856913E-02
    3474    (1,3609)              5.47898384E-02
    3475    (1,3610)              5.47891695E-02
    3476    (1,3611)              5.47855575E-02
    3477    (1,3612)              5.48240849E-02
    3478    (1,3613)              5.48243525E-02
    3479    (1,3614)              5.47855575E-02
    3480    (1,3615)              5.47854238E-02
    3481    (1,3616)              5.47858251E-02
    3482    (1,3617)              5.47852900E-02
    3483    (1,3620)              5.47858251E-02
    3484    (1,3621)              5.47856913E-02
    3485    (1,3622)              5.47863602E-02
    3486    (1,3623)              5.47860926E-02
    3487    (1,3624)              5.47855575E-02
    3488    (1,3625)              5.48243525E-02
    3489    (1,3626)              5.48244863E-02
    3490    (1,3627)              5.47856913E-02
    3491    (1,3628)              5.47890357E-02
    3492    (1,3629)              5.47891695E-02
    3493    (1,3630)              5.47855575E-02
    3494    (1,3631)              5.47858251E-02
    3495    (1,3632)              5.47859589E-02
    3496    (1,3633)              5.47863602E-02
    3497    (1,3634)              5.48243525E-02
    3498    (1,3635)              5.48243525E-02
    3499    (1,3636)              5.47860926E-02
    3500    (1,3637)              5.47862264E-02
    3501    (1,3638)              5.47854238E-02
    3502    (1,3639)              5.47862264E-02
    3503    (1,3640)              5.47854238E-02
    3504    (1,3641)              5.47864940E-02
    3505    (1,3642)              5.47897046E-02
    3506    (1,3643)              5.48284995E-02
    3507    (1,3644)              5.48244863E-02
    3508    (1,3645)              5.47854238E-02
    3509    (1,3646)              5.47856913E-02
    3510    (1,3647)              5.47860926E-02
    3511    (1,3648)              5.47859589E-02
    3512    (1,3649)              5.47855575E-02
    3513    (1,3650)              5.47859589E-02
    3514    (1,3651)              5.47856913E-02
    3515    (1,3652)              5.47854238E-02
    3516    (1,3653)              5.48238174E-02
    3517    (1,3654)              5.48244863E-02
    3518    (1,3655)              5.47859589E-02
    3519    (1,3656)              5.47854238E-02
    3520    (1,3657)              5.47894370E-02
    3521    (1,3658)              5.47898384E-02
    3522    (1,3659)              5.47852900E-02
    3523    (1,3660)              5.47858251E-02
    3524    (1,3661)              5.47854238E-02
    3525    (1,3662)              5.48246200E-02
    3526    (1,3667)              5.47862264E-02
    3527    (1,3668)              5.47856913E-02
    3528    (1,3669)              5.47862264E-02
    3529    (1,3670)              5.47855575E-02
    3530    (1,3671)              5.47856913E-02
    3531    (1,3672)              5.48244863E-02
    3532    (1,3673)              5.48283657E-02
    3533    (1,3674)              5.47898384E-02
    3534    (1,3675)              5.47852900E-02
    3535    (1,3676)              5.47856913E-02
    3536    (1,3677)              5.47854238E-02
    3537    (1,3678)              5.47859589E-02
    3538    (1,3679)              5.47858251E-02
    3539    (1,3680)              5.47856913E-02
    3540    (1,3681)              5.48239512E-02
    3541    (1,3682)              5.48244863E-02
    3542    (1,3683)              5.47860926E-02
    3543    (1,3684)              5.47858251E-02
    3544    (1,3685)              5.47859589E-02
    3545    (1,3686)              5.47854238E-02
    3546    (1,3687)              5.47895708E-02
    3547    (1,3688)              5.47893032E-02
    3548    (1,3689)              5.47858251E-02
    3549    (1,3690)              5.48250214E-02
    3550    (1,3691)              5.48242187E-02
    3551    (1,3692)              5.47862264E-02
    3552    (1,3693)              5.47851562E-02
    3553    (1,3694)              5.47859589E-02
    3554    (1,3695)              5.47859589E-02
    3555    (1,3696)              5.47854238E-02
    3556    (1,3697)              5.47859589E-02
    3557    (1,3698)              5.47858251E-02
    3558    (1,3699)              5.47858251E-02
    3559    (1,3700)              5.48244863E-02
    3560    (1,3701)              5.48243525E-02
    3561    (1,3702)              5.47893032E-02
    3562    (1,3710)              5.47855575E-02
    3563    (1,3711)              5.47855575E-02
    3564    (1,3712)              5.47856913E-02
    3565    (1,3713)              5.47854238E-02
    3566    (1,3714)              5.47901059E-02
    3567    (1,3715)              5.48289009E-02
    3568    (1,3716)              5.48244863E-02
    3569    (1,3717)              5.47848887E-02
    3570    (1,3718)              5.47854238E-02
    3571    (1,3719)              5.47863602E-02
    3572    (1,3720)              5.47858251E-02
    3573    (1,3721)              5.47858251E-02
    3574    (1,3722)              5.47856913E-02
    3575    (1,3723)              5.47863602E-02
    3576    (1,3724)              5.48244863E-02
    3577    (1,3725)              5.48247538E-02
    3578    (1,3746)              5.47862264E-02
    3579    (1,3747)              5.47862264E-02
    3580    (1,3748)              5.47901059E-02
    3581    (1,3749)              5.47895708E-02
    3582    (1,3750)              5.47852900E-02
    3583    (1,3751)              5.48246200E-02
    3584    (1,3752)              5.48243525E-02
    3585    (1,3753)              5.47855575E-02
    3586    (1,3754)              5.47854238E-02
    3587    (1,3755)              5.47859589E-02
    3588    (1,3756)              5.47856913E-02
    3589    (1,3757)              5.47856913E-02
    3590    (1,3758)              5.47854238E-02
    3591    (1,3759)              5.47855575E-02
    3592    (1,3761)              5.47858251E-02
    3593    (1,3762)              5.47894370E-02
    3594    (1,3763)              5.47895708E-02
    3595    (1,3764)              5.47860926E-02
    3596    (1,3765)              5.47852900E-02
    3597    (1,3766)              5.47856913E-02
    3598    (1,3767)              5.48239512E-02
    3599    (1,3768)              5.48247538E-02
    3600    (1,3769)              5.47856913E-02
    3601    (1,3770)              5.47858251E-02
    3602    (1,3771)              5.47860926E-02
    3603    (1,3772)              5.47856913E-02
 -----------------------------------------------



 UBDSV06 SAVING              SFR IN MODEL EXPERIMENTAL     PACKAGE EXPERIMENTAL    CONNECTED TO MODEL EXPERIMENTAL     PACKAGE SFR              ON UNIT   1019 AT TIME STEP     48, STRESS PERIOD      2

 SFR PACKAGE (SFR) FLOW RATES   PERIOD      2   STEP       48
 -----------------------------------------------
   NUMBER   CELLID                    RATE      
 -----------------------------------------------
     1      (1,3210)              0.0000000     
     2      (1,3208)              0.0000000     
     3      (1,3206)              0.0000000     
     4      (1,3205)              0.0000000     
     5      (1,3202)              0.0000000     
     6      (1,3094)              0.0000000     
     7      (1,3093)              0.0000000     
     8      (1,3090)              0.0000000     
     9      (1,3088)              0.0000000     
     10     (1,3087)              0.0000000     
     11     (1,2975)              0.0000000     
     12     (1,2972)              0.0000000     
     13     (1,2970)              0.0000000     
     14     (1,2969)              0.0000000     
     15     (1,2817)              0.0000000     
     16     (1,2814)              0.0000000     
     17     (1,2813)              0.0000000     
     18     (1,2965)              0.0000000     
     19     (1,2962)              0.0000000     
     20     (1,2961)              0.0000000     
     21     (1,2809)              0.0000000     
     22     (1,2806)              0.0000000     
     23     (1,2805)              0.0000000     
     24     (1,2802)              0.0000000     
     25     (1,2801)              0.0000000     
     26     (1,2799)              0.0000000     
     27     (1,2796)              0.0000000     
     28     (1,2795)              0.0000000     
     29     (1,2792)              0.0000000     
     30     (1,2791)              0.0000000     
     31     (1,2788)              0.0000000     
     32     (1,2790)              0.0000000     
     33     (1,2789)              0.0000000     
     34     (1,2786)              0.0000000     
     35     (1,2785)              0.0000000     
     36     (1,2952)              0.0000000     
     37     (1,2949)              0.0000000     
     38     (1,2948)              0.0000000     
     39     (1,2945)              0.0000000     
     40     (1,2944)              0.0000000     
     41     (1,2946)              0.0000000     
     42     (1,2943)              0.0000000     
     43     (1,2942)              0.0000000     
     44     (1,2939)              0.0000000     
     45     (1,2938)              0.0000000     
     46     (1,3071)              0.0000000     
     47     (1,3068)              0.0000000     
     48     (1,3067)              0.0000000     
     49     (1,3069)              0.0000000     
     50     (1,3066)              0.0000000     
     51     (1,3183)              0.0000000     
     52     (1,3182)              0.0000000     
     53     (1,3184)              0.0000000     
     54     (1,3181)              0.0000000     
     55     (1,3262)              0.0000000     
     56     (1,3261)              0.0000000     
     57     (1,3263)              0.0000000     
     58     (1,3330)              0.0000000     
     59     (1,3332)              0.0000000     
     60     (1,3329)              0.0000000     
     61     (1,3410)              0.0000000     
     62     (1,3409)              0.0000000     
     63     (1,3411)              0.0000000     
     64     (1,3408)              0.0000000     
     65     (1,3407)              0.0000000     
     66     (1,3404)              0.0000000     
     67     (1,3403)              0.0000000     
     68     (1,3400)              0.0000000     
     69     (1,3399)              0.0000000     
     70     (1,3396)              0.0000000     
     71     (1,3479)              0.0000000     
     72     (1,3478)              0.0000000     
     73     (1,3475)              0.0000000     
     74     (1,3477)              0.0000000     
     75     (1,3476)              0.0000000     
     76     (1,3473)              0.0000000     
     77     (1,3472)              0.0000000     
     78     (1,3543)              0.0000000     
     79     (1,3540)              0.0000000     
     80     (1,3539)              0.0000000     
     81     (1,3536)              0.0000000     
     82     (1,3535)              0.0000000     
     83     (1,3532)              0.0000000     
     84     (1,3467)              0.0000000     
     85     (1,3466)              0.0000000     
     86     (1,3464)              0.0000000     
     87     (1,3461)              0.0000000     
     88     (1,3387)              0.0000000     
     89     (1,3386)              0.0000000     
     90     (1,3384)              0.0000000     
     91     (1,3381)              0.0000000     
     92     (1,3315)              0.0000000     
     93     (1,3314)              0.0000000     
     94     (1,3312)              0.0000000     
     95     (1,3248)             -8.7315568     
     96     (1,3245)             -96.381237     
     97     (1,3243)             -89.046494     
     98     (1,3140)             -21.657172     
     99     (1,3137)             -41.666650     
    100     (1,3132)             -28.608289     
    101     (1,3012)             -11.143778     
    102     (1,3010)              4.3403130     
    103     (1,3011)             -14.600320     
    104     (1,3017)             -19.690270     
    105     (1,2866)             -13.366200     
    106     (1,2864)              8.8067997     
    107     (1,2865)             -12.094117     
    108     (1,2709)              9.9184510     
    109     (1,2707)             -2.3936927     
    110     (1,2705)             -25.375878     
    111     (1,2606)             -63.727389     
    112     (1,2604)             -62.718252     
    113     (1,2534)             -36.397831     
    114     (1,2532)             -21.481482     
    115     (1,2449)             -2.45068540E-02
    116     (1,2448)              20.541318     
    117     (1,2446)              49.502990     
    118     (1,2353)              18.082655     
    119     (1,2350)             -26.435000     
    120     (1,2348)              13.056446     
    121     (1,2347)              2.7911778     
    122     (1,2271)              0.19784978    
    123     (1,2272)             -9.1303489     
    124     (1,2270)              19.835978     
    125     (1,2273)             -16.593757     
    126     (1,2274)             -47.906732     
    127     (1,2185)              3.5140818     
    128     (1,2188)             -41.414451     
    129     (1,2186)             -142.72378     
    130     (1,2093)             -131.11351     
    131     (1,2090)             -101.54793     
    132     (1,2089)             -63.346697     
    133     (1,2086)             -90.970933     
    134     (1,2085)             -37.965138     
    135     (1,2083)             -50.507932     
    136     (1,2080)             -10.024189     
    137     (1,1971)             -43.874169     
    138     (1,1969)             -37.001353     
    139     (1,1972)             -49.210859     
    140     (1,1973)             -113.23838     
    141     (1,1976)             -56.006257     
    142     (1,1836)             -145.59816     
    143     (1,1831)             -15.324795     
    144     (1,1833)             -72.526563     
    145     (1,1828)             -86.857169     
    146     (1,1684)             -59.858307     
    147     (1,1683)             -98.002171     
    148     (1,1680)             -73.210558     
    149     (1,1679)             -23.449873     
    150     (1,1823)             -48.371175     
    151     (1,1820)             -47.056026     
    152     (1,1822)             -48.244759     
    153     (1,1965)             -44.959574     
    154     (1,1967)             -61.642939     
    155     (1,1966)             -39.570076     
    156     (1,1963)             -46.833469     
    157     (1,1962)             -56.206661     
    158     (1,1960)             -58.816861     
    159     (1,1957)             -57.044433     
    160     (1,1956)             -58.406118     
    161     (1,1953)             -50.593289     
    162     (1,1958)             -72.220667     
    163     (1,1952)             -83.019200     
    164     (1,1951)             -70.803647     
    165     (1,1948)             -58.324099     
    166     (1,1947)             -51.391512     
    167     (1,1944)             -39.104509     
    168     (1,1943)             -30.449832     
    169     (1,1940)             -21.998690     
    170     (1,1939)             -29.727109     
    171     (1,1936)             -14.621772     
    172     (1,1935)             -4.7480825     
    173     (1,1932)              8.2234618     
    174     (1,1930)             -13.797981     
    175     (1,1929)             -8.4056931     
    176     (1,1926)              8.9922756     
    177     (1,1804)              9.6795709     
    178     (1,1803)             -34.585522     
    179     (1,1800)             -8.0692056     
    180     (1,1798)             -5.3524706     
    181     (1,1797)              4.4022264     
    182     (1,1794)              12.672934     
    183     (1,1653)              24.207311     
    184     (1,1651)              34.403195     
    185     (1,1654)             -4.3091485     
    186     (1,1521)              2.9081844     
    187     (1,1519)              12.144938     
    188     (1,1394)              33.816483     
    189     (1,1392)              61.796242     
    190     (1,1266)             -93.442400     
    191     (1,1264)             -118.92287     
    192     (1,1261)             -14.697614     
    193     (1,1153)             -127.18899     
    194     (1,1151)             -82.065748     
    195     (1,1150)             -39.685817     
    196     (1,1063)             -79.828875     
    197     (1,1061)             -73.493242     
    198     (1,968)              -20.417151     
    199     (1,965)              -37.565972     
    200     (1,963)              -56.840942     
    201     (1,960)              -71.744392     
    202     (1,959)              -76.030376     
    203     (1,878)              -42.135344     
    204     (1,875)              -60.325476     
    205     (1,873)              -55.195661     
    206     (1,872)              -35.047320     
    207     (1,794)              -58.564780     
    208     (1,791)              -15.027599     
    209     (1,789)              -62.450631     
    210     (1,712)              -1.0892306     
    211     (1,711)              -44.672843     
    212     (1,709)              -10.333407     
    213     (1,706)              -15.154886     
    214     (1,630)              -43.519246     
    215     (1,629)              -31.862159     
    216     (1,627)              -43.140376     
    217     (1,624)              -9.9226858     
    218     (1,549)              -7.4682314     
    219     (1,547)              -83.347960     
    220     (1,546)              -94.486676     
    221     (1,543)              -1.6443399     
    222     (1,469)              -73.571434     
    223     (1,467)              -70.760816     
    224     (1,394)              -40.171875     
    225     (1,393)              -59.142943     
    226     (1,390)              -42.267151     
    227     (1,389)              -36.787713     
    228     (1,387)              -9.9008140     
    229     (1,384)              -36.851622     
    230     (1,383)              -9.9071108     
    231     (1,302)              -23.782174     
    232     (1,299)              -16.177643     
    233     (1,297)              -3.5018332     
    234     (1,296)              -11.447497     
    235     (1,293)               2.4800355     
    236     (1,292)               13.008137     
    237     (1,289)               4.8796356     
    238     (1,250)               32.625313     
    239     (1,249)               73.560364     
    240     (1,246)              -16.078995     
    241     (1,244)              -40.133360     
    242     (1,243)              -143.80027     
    243     (1,209)              -71.501023     
    244     (1,206)              -101.27900     
    245     (1,204)              -55.405684     
    246     (1,203)              -84.780299     
    247     (1,171)              -49.097762     
    248     (1,168)              -88.542530     
    249     (1,166)              -7.4170707     
    250     (1,165)              -92.930744     
    251     (1,135)              -7.3048621     
    252     (1,132)              -86.139426     
    253     (1,130)              -6.8073976     
    254     (1,129)              -81.935701     
    255     (1,101)              -6.7134924     
    256     (1,98)               -78.591409     
    257     (1,96)               -6.3717994     
    258     (1,95)               -75.563769     
    259     (1,69)               -6.3787248     
    260     (1,66)               -72.046955     
    261     (1,65)               -3.7251719     
    262     (1,63)               -67.859206     
    263     (1,60)               -17.591552     
    264     (1,36)               -121.08492     
    265     (1,35)               -51.636485     
    266     (1,33)               -98.304305     
    267     (1,30)               -93.767596     
    268     (1,8)                -110.44300     
    269     (1,7)                -131.26672     
    270     (1,5)                -22.766254     
 -----------------------------------------------



 UBDSV06 SAVING     FLOW-JA-FACE IN MODEL EXPERIMENTAL     PACKAGE SFR             CONNECTED TO MODEL EXPERIMENTAL     PACKAGE SFR              ON UNIT   1015 AT TIME STEP     48, STRESS PERIOD      2
 UBDSV06 SAVING              GWF IN MODEL EXPERIMENTAL     PACKAGE SFR             CONNECTED TO MODEL EXPERIMENTAL     PACKAGE EXPERIMENTAL     ON UNIT   1015 AT TIME STEP     48, STRESS PERIOD      2
 UBDSV06 SAVING         RAINFALL IN MODEL EXPERIMENTAL     PACKAGE SFR             CONNECTED TO MODEL EXPERIMENTAL     PACKAGE SFR              ON UNIT   1015 AT TIME STEP     48, STRESS PERIOD      2
 UBDSV06 SAVING      EVAPORATION IN MODEL EXPERIMENTAL     PACKAGE SFR             CONNECTED TO MODEL EXPERIMENTAL     PACKAGE SFR              ON UNIT   1015 AT TIME STEP     48, STRESS PERIOD      2
 UBDSV06 SAVING           RUNOFF IN MODEL EXPERIMENTAL     PACKAGE SFR             CONNECTED TO MODEL EXPERIMENTAL     PACKAGE SFR              ON UNIT   1015 AT TIME STEP     48, STRESS PERIOD      2
 UBDSV06 SAVING       EXT-INFLOW IN MODEL EXPERIMENTAL     PACKAGE SFR             CONNECTED TO MODEL EXPERIMENTAL     PACKAGE SFR              ON UNIT   1015 AT TIME STEP     48, STRESS PERIOD      2
 UBDSV06 SAVING      EXT-OUTFLOW IN MODEL EXPERIMENTAL     PACKAGE SFR             CONNECTED TO MODEL EXPERIMENTAL     PACKAGE SFR              ON UNIT   1015 AT TIME STEP     48, STRESS PERIOD      2
 UBDSV06 SAVING          STORAGE IN MODEL EXPERIMENTAL     PACKAGE SFR             CONNECTED TO MODEL EXPERIMENTAL     PACKAGE SFR              ON UNIT   1015 AT TIME STEP     48, STRESS PERIOD      2
1
  HEAD IN LAYER   1 AT END OF TIME STEP  48 IN STRESS PERIOD    2
  ---------------------------------------------------------------------------

                1               2               3               4               5               6               7               8               9              10
               11              12              13              14              15              16              17              18              19              20
               21              22              23              24              25              26              27              28              29              30
               31              32              33              34              35              36              37              38              39              40
               41              42              43              44              45              46              47              48              49              50
               51              52              53              54              55              56              57              58              59              60
               61              62              63              64              65              66              67              68              69              70
               71              72              73              74              75              76              77              78              79              80
               81              82              83              84              85              86              87              88              89              90
               91              92              93              94              95              96              97              98              99             100
              101             102             103             104             105             106             107             108             109             110
              111             112             113             114             115             116             117             118             119             120
              121             122             123             124             125             126             127             128             129             130
              131             132             133             134             135             136             137             138             139             140
              141             142             143             144             145             146             147             148             149             150
              151             152             153             154             155             156             157             158             159             160
              161             162             163             164             165             166             167             168             169             170
              171             172             173             174             175             176             177             178             179             180
              181             182             183             184             185             186             187             188             189             190
              191             192             193             194             195             196             197             198             199             200
              201             202             203             204             205             206             207             208             209             210
              211             212             213             214             215             216             217             218             219             220
              221             222             223             224             225             226             227             228             229             230
              231             232             233             234             235             236             237             238             239             240
              241             242             243             244             245             246             247             248             249             250
              251             252             253             254             255             256             257             258             259             260
              261             262             263             264             265             266             267             268             269             270
              271             272             273             274             275             276             277             278             279             280
              281             282             283             284             285             286             287             288             289             290
              291             292             293             294             295             296             297             298             299             300
              301             302             303             304             305             306             307             308             309             310
              311             312             313             314             315             316             317             318             319             320
              321             322             323             324             325             326             327             328             329             330
              331             332             333             334             335             336             337             338             339             340
              341             342             343             344             345             346             347             348             349             350
              351             352             353             354             355             356             357             358             359             360
              361             362             363             364             365             366             367             368             369             370
              371             372             373             374             375             376             377             378             379             380
              381             382             383             384             385             386             387             388             389             390
              391             392             393             394             395             396             397             398             399             400
              401             402             403             404             405             406             407             408             409             410
              411             412             413             414             415             416             417             418             419             420
              421             422             423             424             425             426             427             428             429             430
              431             432             433             434             435             436             437             438             439             440
              441             442             443             444             445             446             447             448             449             450
              451             452             453             454             455             456             457             458             459             460
              461             462             463             464             465             466             467             468             469             470
              471             472             473             474             475             476             477             478             479             480
              481             482             483             484             485             486             487             488             489             490
              491             492             493             494             495             496             497             498             499             500
              501             502             503             504             505             506             507             508             509             510
              511             512             513             514             515             516             517             518             519             520
              521             522             523             524             525             526             527             528             529             530
              531             532             533             534             535             536             537             538             539             540
              541             542             543             544             545             546             547             548             549             550
              551             552             553             554             555             556             557             558             559             560
              561             562             563             564             565             566             567             568             569             570
              571             572             573             574             575             576             577             578             579             580
              581             582             583             584             585             586             587             588             589             590
              591             592             593             594             595             596             597             598             599             600
              601             602             603             604             605             606             607             608             609             610
              611             612             613             614             615             616             617             618             619             620
              621             622             623             624             625             626             627             628             629             630
              631             632             633             634             635             636             637             638             639             640
              641             642             643             644             645             646             647             648             649             650
              651             652             653             654             655             656             657             658             659             660
              661             662             663             664             665             666             667             668             669             670
              671             672             673             674             675             676             677             678             679             680
              681             682             683             684             685             686             687             688             689             690
              691             692             693             694             695             696             697             698             699             700
              701             702             703             704             705             706             707             708             709             710
              711             712             713             714             715             716             717             718             719             720
              721             722             723             724             725             726             727             728             729             730
              731             732             733             734             735             736             737             738             739             740
              741             742             743             744             745             746             747             748             749             750
              751             752             753             754             755             756             757             758             759             760
              761             762             763             764             765             766             767             768             769             770
              771             772             773             774             775             776             777             778             779             780
              781             782             783             784             785             786             787             788             789             790
              791             792             793             794             795             796             797             798             799             800
              801             802             803             804             805             806             807             808             809             810
              811             812             813             814             815             816             817             818             819             820
              821             822             823             824             825             826             827             828             829             830
              831             832             833             834             835             836             837             838             839             840
              841             842             843             844             845             846             847             848             849             850
              851             852             853             854             855             856             857             858             859             860
              861             862             863             864             865             866             867             868             869             870
              871             872             873             874             875             876             877             878             879             880
              881             882             883             884             885             886             887             888             889             890
              891             892             893             894             895             896             897             898             899             900
              901             902             903             904             905             906             907             908             909             910
              911             912             913             914             915             916             917             918             919             920
              921             922             923             924             925             926             927             928             929             930
              931             932             933             934             935             936             937             938             939             940
              941             942             943             944             945             946             947             948             949             950
              951             952             953             954             955             956             957             958             959             960
              961             962             963             964             965             966             967             968             969             970
              971             972             973             974             975             976             977             978             979             980
              981             982             983             984             985             986             987             988             989             990
              991             992             993             994             995             996             997             998             999            1000
             1001            1002            1003            1004            1005            1006            1007            1008            1009            1010
             1011            1012            1013            1014            1015            1016            1017            1018            1019            1020
             1021            1022            1023            1024            1025            1026            1027            1028            1029            1030
             1031            1032            1033            1034            1035            1036            1037            1038            1039            1040
             1041            1042            1043            1044            1045            1046            1047            1048            1049            1050
             1051            1052            1053            1054            1055            1056            1057            1058            1059            1060
             1061            1062            1063            1064            1065            1066            1067            1068            1069            1070
             1071            1072            1073            1074            1075            1076            1077            1078            1079            1080
             1081            1082            1083            1084            1085            1086            1087            1088            1089            1090
             1091            1092            1093            1094            1095            1096            1097            1098            1099            1100
             1101            1102            1103            1104            1105            1106            1107            1108            1109            1110
             1111            1112            1113            1114            1115            1116            1117            1118            1119            1120
             1121            1122            1123            1124            1125            1126            1127            1128            1129            1130
             1131            1132            1133            1134            1135            1136            1137            1138            1139            1140
             1141            1142            1143            1144            1145            1146            1147            1148            1149            1150
             1151            1152            1153            1154            1155            1156            1157            1158            1159            1160
             1161            1162            1163            1164            1165            1166            1167            1168            1169            1170
             1171            1172            1173            1174            1175            1176            1177            1178            1179            1180
             1181            1182            1183            1184            1185            1186            1187            1188            1189            1190
             1191            1192            1193            1194            1195            1196            1197            1198            1199            1200
             1201            1202            1203            1204            1205            1206            1207            1208            1209            1210
             1211            1212            1213            1214            1215            1216            1217            1218            1219            1220
             1221            1222            1223            1224            1225            1226            1227            1228            1229            1230
             1231            1232            1233            1234            1235            1236            1237            1238            1239            1240
             1241            1242            1243            1244            1245            1246            1247            1248            1249            1250
             1251            1252            1253            1254            1255            1256            1257            1258            1259            1260
             1261            1262            1263            1264            1265            1266            1267            1268            1269            1270
             1271            1272            1273            1274            1275            1276            1277            1278            1279            1280
             1281            1282            1283            1284            1285            1286            1287            1288            1289            1290
             1291            1292            1293            1294            1295            1296            1297            1298            1299            1300
             1301            1302            1303            1304            1305            1306            1307            1308            1309            1310
             1311            1312            1313            1314            1315            1316            1317            1318            1319            1320
             1321            1322            1323            1324            1325            1326            1327            1328            1329            1330
             1331            1332            1333            1334            1335            1336            1337            1338            1339            1340
             1341            1342            1343            1344            1345            1346            1347            1348            1349            1350
             1351            1352            1353            1354            1355            1356            1357            1358            1359            1360
             1361            1362            1363            1364            1365            1366            1367            1368            1369            1370
             1371            1372            1373            1374            1375            1376            1377            1378            1379            1380
             1381            1382            1383            1384            1385            1386            1387            1388            1389            1390
             1391            1392            1393            1394            1395            1396            1397            1398            1399            1400
             1401            1402            1403            1404            1405            1406            1407            1408            1409            1410
             1411            1412            1413            1414            1415            1416            1417            1418            1419            1420
             1421            1422            1423            1424            1425            1426            1427            1428            1429            1430
             1431            1432            1433            1434            1435            1436            1437            1438            1439            1440
             1441            1442            1443            1444            1445            1446            1447            1448            1449            1450
             1451            1452            1453            1454            1455            1456            1457            1458            1459            1460
             1461            1462            1463            1464            1465            1466            1467            1468            1469            1470
             1471            1472            1473            1474            1475            1476            1477            1478            1479            1480
             1481            1482            1483            1484            1485            1486            1487            1488            1489            1490
             1491            1492            1493            1494            1495            1496            1497            1498            1499            1500
             1501            1502            1503            1504            1505            1506            1507            1508            1509            1510
             1511            1512            1513            1514            1515            1516            1517            1518            1519            1520
             1521            1522            1523            1524            1525            1526            1527            1528            1529            1530
             1531            1532            1533            1534            1535            1536            1537            1538            1539            1540
             1541            1542            1543            1544            1545            1546            1547            1548            1549            1550
             1551            1552            1553            1554            1555            1556            1557            1558            1559            1560
             1561            1562            1563            1564            1565            1566            1567            1568            1569            1570
             1571            1572            1573            1574            1575            1576            1577            1578            1579            1580
             1581            1582            1583            1584            1585            1586            1587            1588            1589            1590
             1591            1592            1593            1594            1595            1596            1597            1598            1599            1600
             1601            1602            1603            1604            1605            1606            1607            1608            1609            1610
             1611            1612            1613            1614            1615            1616            1617            1618            1619            1620
             1621            1622            1623            1624            1625            1626            1627            1628            1629            1630
             1631            1632            1633            1634            1635            1636            1637            1638            1639            1640
             1641            1642            1643            1644            1645            1646            1647            1648            1649            1650
             1651            1652            1653            1654            1655            1656            1657            1658            1659            1660
             1661            1662            1663            1664            1665            1666            1667            1668            1669            1670
             1671            1672            1673            1674            1675            1676            1677            1678            1679            1680
             1681            1682            1683            1684            1685            1686            1687            1688            1689            1690
             1691            1692            1693            1694            1695            1696            1697            1698            1699            1700
             1701            1702            1703            1704            1705            1706            1707            1708            1709            1710
             1711            1712            1713            1714            1715            1716            1717            1718            1719            1720
             1721            1722            1723            1724            1725            1726            1727            1728            1729            1730
             1731            1732            1733            1734            1735            1736            1737            1738            1739            1740
             1741            1742            1743            1744            1745            1746            1747            1748            1749            1750
             1751            1752            1753            1754            1755            1756            1757            1758            1759            1760
             1761            1762            1763            1764            1765            1766            1767            1768            1769            1770
             1771            1772            1773            1774            1775            1776            1777            1778            1779            1780
             1781            1782            1783            1784            1785            1786            1787            1788            1789            1790
             1791            1792            1793            1794            1795            1796            1797            1798            1799            1800
             1801            1802            1803            1804            1805            1806            1807            1808            1809            1810
             1811            1812            1813            1814            1815            1816            1817            1818            1819            1820
             1821            1822            1823            1824            1825            1826            1827            1828            1829            1830
             1831            1832            1833            1834            1835            1836            1837            1838            1839            1840
             1841            1842            1843            1844            1845            1846            1847            1848            1849            1850
             1851            1852            1853            1854            1855            1856            1857            1858            1859            1860
             1861            1862            1863            1864            1865            1866            1867            1868            1869            1870
             1871            1872            1873            1874            1875            1876            1877            1878            1879            1880
             1881            1882            1883            1884            1885            1886            1887            1888            1889            1890
             1891            1892            1893            1894            1895            1896            1897            1898            1899            1900
             1901            1902            1903            1904            1905            1906            1907            1908            1909            1910
             1911            1912            1913            1914            1915            1916            1917            1918            1919            1920
             1921            1922            1923            1924            1925            1926            1927            1928            1929            1930
             1931            1932            1933            1934            1935            1936            1937            1938            1939            1940
             1941            1942            1943            1944            1945            1946            1947            1948            1949            1950
             1951            1952            1953            1954            1955            1956            1957            1958            1959            1960
             1961            1962            1963            1964            1965            1966            1967            1968            1969            1970
             1971            1972            1973            1974            1975            1976            1977            1978            1979            1980
             1981            1982            1983            1984            1985            1986            1987            1988            1989            1990
             1991            1992            1993            1994            1995            1996            1997            1998            1999            2000
             2001            2002            2003            2004            2005            2006            2007            2008            2009            2010
             2011            2012            2013            2014            2015            2016            2017            2018            2019            2020
             2021            2022            2023            2024            2025            2026            2027            2028            2029            2030
             2031            2032            2033            2034            2035            2036            2037            2038            2039            2040
             2041            2042            2043            2044            2045            2046            2047            2048            2049            2050
             2051            2052            2053            2054            2055            2056            2057            2058            2059            2060
             2061            2062            2063            2064            2065            2066            2067            2068            2069            2070
             2071            2072            2073            2074            2075            2076            2077            2078            2079            2080
             2081            2082            2083            2084            2085            2086            2087            2088            2089            2090
             2091            2092            2093            2094            2095            2096            2097            2098            2099            2100
             2101            2102            2103            2104            2105            2106            2107            2108            2109            2110
             2111            2112            2113            2114            2115            2116            2117            2118            2119            2120
             2121            2122            2123            2124            2125            2126            2127            2128            2129            2130
             2131            2132            2133            2134            2135            2136            2137            2138            2139            2140
             2141            2142            2143            2144            2145            2146            2147            2148            2149            2150
             2151            2152            2153            2154            2155            2156            2157            2158            2159            2160
             2161            2162            2163            2164            2165            2166            2167            2168            2169            2170
             2171            2172            2173            2174            2175            2176            2177            2178            2179            2180
             2181            2182            2183            2184            2185            2186            2187            2188            2189            2190
             2191            2192            2193            2194            2195            2196            2197            2198            2199            2200
             2201            2202            2203            2204            2205            2206            2207            2208            2209            2210
             2211            2212            2213            2214            2215            2216            2217            2218            2219            2220
             2221            2222            2223            2224            2225            2226            2227            2228            2229            2230
             2231            2232            2233            2234            2235            2236            2237            2238            2239            2240
             2241            2242            2243            2244            2245            2246            2247            2248            2249            2250
             2251            2252            2253            2254            2255            2256            2257            2258            2259            2260
             2261            2262            2263            2264            2265            2266            2267            2268            2269            2270
             2271            2272            2273            2274            2275            2276            2277            2278            2279            2280
             2281            2282            2283            2284            2285            2286            2287            2288            2289            2290
             2291            2292            2293            2294            2295            2296            2297            2298            2299            2300
             2301            2302            2303            2304            2305            2306            2307            2308            2309            2310
             2311            2312            2313            2314            2315            2316            2317            2318            2319            2320
             2321            2322            2323            2324            2325            2326            2327            2328            2329            2330
             2331            2332            2333            2334            2335            2336            2337            2338            2339            2340
             2341            2342            2343            2344            2345            2346            2347            2348            2349            2350
             2351            2352            2353            2354            2355            2356            2357            2358            2359            2360
             2361            2362            2363            2364            2365            2366            2367            2368            2369            2370
             2371            2372            2373            2374            2375            2376            2377            2378            2379            2380
             2381            2382            2383            2384            2385            2386            2387            2388            2389            2390
             2391            2392            2393            2394            2395            2396            2397            2398            2399            2400
             2401            2402            2403            2404            2405            2406            2407            2408            2409            2410
             2411            2412            2413            2414            2415            2416            2417            2418            2419            2420
             2421            2422            2423            2424            2425            2426            2427            2428            2429            2430
             2431            2432            2433            2434            2435            2436            2437            2438            2439            2440
             2441            2442            2443            2444            2445            2446            2447            2448            2449            2450
             2451            2452            2453            2454            2455            2456            2457            2458            2459            2460
             2461            2462            2463            2464            2465            2466            2467            2468            2469            2470
             2471            2472            2473            2474            2475            2476            2477            2478            2479            2480
             2481            2482            2483            2484            2485            2486            2487            2488            2489            2490
             2491            2492            2493            2494            2495            2496            2497            2498            2499            2500
             2501            2502            2503            2504            2505            2506            2507            2508            2509            2510
             2511            2512            2513            2514            2515            2516            2517            2518            2519            2520
             2521            2522            2523            2524            2525            2526            2527            2528            2529            2530
             2531            2532            2533            2534            2535            2536            2537            2538            2539            2540
             2541            2542            2543            2544            2545            2546            2547            2548            2549            2550
             2551            2552            2553            2554            2555            2556            2557            2558            2559            2560
             2561            2562            2563            2564            2565            2566            2567            2568            2569            2570
             2571            2572            2573            2574            2575            2576            2577            2578            2579            2580
             2581            2582            2583            2584            2585            2586            2587            2588            2589            2590
             2591            2592            2593            2594            2595            2596            2597            2598            2599            2600
             2601            2602            2603            2604            2605            2606            2607            2608            2609            2610
             2611            2612            2613            2614            2615            2616            2617            2618            2619            2620
             2621            2622            2623            2624            2625            2626            2627            2628            2629            2630
             2631            2632            2633            2634            2635            2636            2637            2638            2639            2640
             2641            2642            2643            2644            2645            2646            2647            2648            2649            2650
             2651            2652            2653            2654            2655            2656            2657            2658            2659            2660
             2661            2662            2663            2664            2665            2666            2667            2668            2669            2670
             2671            2672            2673            2674            2675            2676            2677            2678            2679            2680
             2681            2682            2683            2684            2685            2686            2687            2688            2689            2690
             2691            2692            2693            2694            2695            2696            2697            2698            2699            2700
             2701            2702            2703            2704            2705            2706            2707            2708            2709            2710
             2711            2712            2713            2714            2715            2716            2717            2718            2719            2720
             2721            2722            2723            2724            2725            2726            2727            2728            2729            2730
             2731            2732            2733            2734            2735            2736            2737            2738            2739            2740
             2741            2742            2743            2744            2745            2746            2747            2748            2749            2750
             2751            2752            2753            2754            2755            2756            2757            2758            2759            2760
             2761            2762            2763            2764            2765            2766            2767            2768            2769            2770
             2771            2772            2773            2774            2775            2776            2777            2778            2779            2780
             2781            2782            2783            2784            2785            2786            2787            2788            2789            2790
             2791            2792            2793            2794            2795            2796            2797            2798            2799            2800
             2801            2802            2803            2804            2805            2806            2807            2808            2809            2810
             2811            2812            2813            2814            2815            2816            2817            2818            2819            2820
             2821            2822            2823            2824            2825            2826            2827            2828            2829            2830
             2831            2832            2833            2834            2835            2836            2837            2838            2839            2840
             2841            2842            2843            2844            2845            2846            2847            2848            2849            2850
             2851            2852            2853            2854            2855            2856            2857            2858            2859            2860
             2861            2862            2863            2864            2865            2866            2867            2868            2869            2870
             2871            2872            2873            2874            2875            2876            2877            2878            2879            2880
             2881            2882            2883            2884            2885            2886            2887            2888            2889            2890
             2891            2892            2893            2894            2895            2896            2897            2898            2899            2900
             2901            2902            2903            2904            2905            2906            2907            2908            2909            2910
             2911            2912            2913            2914            2915            2916            2917            2918            2919            2920
             2921            2922            2923            2924            2925            2926            2927            2928            2929            2930
             2931            2932            2933            2934            2935            2936            2937            2938            2939            2940
             2941            2942            2943            2944            2945            2946            2947            2948            2949            2950
             2951            2952            2953            2954            2955            2956            2957            2958            2959            2960
             2961            2962            2963            2964            2965            2966            2967            2968            2969            2970
             2971            2972            2973            2974            2975            2976            2977            2978            2979            2980
             2981            2982            2983            2984            2985            2986            2987            2988            2989            2990
             2991            2992            2993            2994            2995            2996            2997            2998            2999            3000
             3001            3002            3003            3004            3005            3006            3007            3008            3009            3010
             3011            3012            3013            3014            3015            3016            3017            3018            3019            3020
             3021            3022            3023            3024            3025            3026            3027            3028            3029            3030
             3031            3032            3033            3034            3035            3036            3037            3038            3039            3040
             3041            3042            3043            3044            3045            3046            3047            3048            3049            3050
             3051            3052            3053            3054            3055            3056            3057            3058            3059            3060
             3061            3062            3063            3064            3065            3066            3067            3068            3069            3070
             3071            3072            3073            3074            3075            3076            3077            3078            3079            3080
             3081            3082            3083            3084            3085            3086            3087            3088            3089            3090
             3091            3092            3093            3094            3095            3096            3097            3098            3099            3100
             3101            3102            3103            3104            3105            3106            3107            3108            3109            3110
             3111            3112            3113            3114            3115            3116            3117            3118            3119            3120
             3121            3122            3123            3124            3125            3126            3127            3128            3129            3130
             3131            3132            3133            3134            3135            3136            3137            3138            3139            3140
             3141            3142            3143            3144            3145            3146            3147            3148            3149            3150
             3151            3152            3153            3154            3155            3156            3157            3158            3159            3160
             3161            3162            3163            3164            3165            3166            3167            3168            3169            3170
             3171            3172            3173            3174            3175            3176            3177            3178            3179            3180
             3181            3182            3183            3184            3185            3186            3187            3188            3189            3190
             3191            3192            3193            3194            3195            3196            3197            3198            3199            3200
             3201            3202            3203            3204            3205            3206            3207            3208            3209            3210
             3211            3212            3213            3214            3215            3216            3217            3218            3219            3220
             3221            3222            3223            3224            3225            3226            3227            3228            3229            3230
             3231            3232            3233            3234            3235            3236            3237            3238            3239            3240
             3241            3242            3243            3244            3245            3246            3247            3248            3249            3250
             3251            3252            3253            3254            3255            3256            3257            3258            3259            3260
             3261            3262            3263            3264            3265            3266            3267            3268            3269            3270
             3271            3272            3273            3274            3275            3276            3277            3278            3279            3280
             3281            3282            3283            3284            3285            3286            3287            3288            3289            3290
             3291            3292            3293            3294            3295            3296            3297            3298            3299            3300
             3301            3302            3303            3304            3305            3306            3307            3308            3309            3310
             3311            3312            3313            3314            3315            3316            3317            3318            3319            3320
             3321            3322            3323            3324            3325            3326            3327            3328            3329            3330
             3331            3332            3333            3334            3335            3336            3337            3338            3339            3340
             3341            3342            3343            3344            3345            3346            3347            3348            3349            3350
             3351            3352            3353            3354            3355            3356            3357            3358            3359            3360
             3361            3362            3363            3364            3365            3366            3367            3368            3369            3370
             3371            3372            3373            3374            3375            3376            3377            3378            3379            3380
             3381            3382            3383            3384            3385            3386            3387            3388            3389            3390
             3391            3392            3393            3394            3395            3396            3397            3398            3399            3400
             3401            3402            3403            3404            3405            3406            3407            3408            3409            3410
             3411            3412            3413            3414            3415            3416            3417            3418            3419            3420
             3421            3422            3423            3424            3425            3426            3427            3428            3429            3430
             3431            3432            3433            3434            3435            3436            3437            3438            3439            3440
             3441            3442            3443            3444            3445            3446            3447            3448            3449            3450
             3451            3452            3453            3454            3455            3456            3457            3458            3459            3460
             3461            3462            3463            3464            3465            3466            3467            3468            3469            3470
             3471            3472            3473            3474            3475            3476            3477            3478            3479            3480
             3481            3482            3483            3484            3485            3486            3487            3488            3489            3490
             3491            3492            3493            3494            3495            3496            3497            3498            3499            3500
             3501            3502            3503            3504            3505            3506            3507            3508            3509            3510
             3511            3512            3513            3514            3515            3516            3517            3518            3519            3520
             3521            3522            3523            3524            3525            3526            3527            3528            3529            3530
             3531            3532            3533            3534            3535            3536            3537            3538            3539            3540
             3541            3542            3543            3544            3545            3546            3547            3548            3549            3550
             3551            3552            3553            3554            3555            3556            3557            3558            3559            3560
             3561            3562            3563            3564            3565            3566            3567            3568            3569            3570
             3571            3572            3573            3574            3575            3576            3577            3578            3579            3580
             3581            3582            3583            3584            3585            3586            3587            3588            3589            3590
             3591            3592            3593            3594            3595            3596            3597            3598            3599            3600
             3601            3602            3603            3604            3605            3606            3607            3608            3609            3610
             3611            3612            3613            3614            3615            3616            3617            3618            3619            3620
             3621            3622            3623            3624            3625            3626            3627            3628            3629            3630
             3631            3632            3633            3634            3635            3636            3637            3638            3639            3640
             3641            3642            3643            3644            3645            3646            3647            3648            3649            3650
             3651            3652            3653            3654            3655            3656            3657            3658            3659            3660
             3661            3662            3663            3664            3665            3666            3667            3668            3669            3670
             3671            3672            3673            3674            3675            3676            3677            3678            3679            3680
             3681            3682            3683            3684            3685            3686            3687            3688            3689            3690
             3691            3692            3693            3694            3695            3696            3697            3698            3699            3700
             3701            3702            3703            3704            3705            3706            3707            3708            3709            3710
             3711            3712            3713            3714            3715            3716            3717            3718            3719            3720
             3721            3722            3723            3724            3725            3726            3727            3728            3729            3730
             3731            3732            3733            3734            3735            3736            3737            3738            3739            3740
             3741            3742            3743            3744            3745            3746            3747            3748            3749            3750
             3751            3752            3753            3754            3755            3756            3757            3758            3759            3760
             3761            3762            3763            3764            3765            3766            3767            3768            3769            3770
             3771            3772            3773            3774            3775            3776            3777            3778            3779            3780
             3781            3782            3783
 ................................................................................................................................................................
   1      133.790         133.777         133.743         133.670         133.619         133.611         133.495         133.474         133.594         133.683    
          133.760         133.828         133.891         133.952         134.009         134.064         134.119         134.176         134.233         134.283    
          134.331         134.377         134.413         133.701         133.723         133.715         133.683         133.618         133.512         133.433    
          133.534         133.484         133.423         133.482         133.428         133.412         133.559         133.654         133.733         133.805    
          133.874         133.941         134.006         134.069         134.133         134.197         134.256         134.314         134.373         134.442    
          134.549         133.668         133.682         133.689         133.681         133.657         133.614         133.551         133.488         133.462    
          133.519         133.503         133.465         133.513         133.487         133.471         133.568         133.603         133.521         133.570    
          133.652         133.732         133.809         133.884         133.958         134.028         134.096         134.165         134.232         134.298    
          134.366         134.440         134.527         134.621         133.655         133.663         133.671         133.673         133.667         133.650    
          133.623         133.588         133.555         133.522         133.474         133.520         133.498         133.475         133.571         133.607    
          133.525         133.574         133.660         133.746         133.831         133.913         133.992         134.065         134.138         134.208    
          134.280         134.354         134.430         134.512         134.600         134.693         133.646         133.653         133.660         133.665    
          133.666         133.662         133.652         133.635         133.615         133.593         133.569         133.532         133.477         133.526    
          133.506         133.480         133.580         133.618         133.533         133.585         133.677         133.776         133.872         133.959    
          134.036         134.114         134.186         134.260         134.337         134.417         134.500         134.589         134.679         134.770    
          133.635         133.643         133.651         133.657         133.663         133.665         133.664         133.659         133.650         133.638    
          133.624         133.608         133.585         133.546         133.484         133.534         133.519         133.490         133.588         133.636    
          133.525         133.597         133.716         133.836         133.932         134.011         134.089         134.163         134.238         134.318    
          134.400         134.489         134.581         134.672         134.766         134.862         133.622         133.631         133.640         133.649    
          133.657         133.663         133.667         133.669         133.668         133.665         133.660         133.652         133.643         133.630    
          133.609         133.573         133.505         133.538         133.554         133.523         133.628         133.701         133.576         133.685    
          133.816         133.917         133.990         134.065         134.137         134.212         134.294         134.381         134.474         134.573    
          134.671         134.771         134.876         134.984         133.600         133.614         133.626         133.638         133.648         133.658    
          133.666         133.672         133.677         133.680         133.681         133.681         133.679         133.677         133.673         133.667    
          133.658         133.642         133.579         133.687         133.686         133.746         133.808         133.858         133.860         133.895    
          133.922         133.974         134.037         134.104         134.179         134.264         134.357         134.457         134.562         134.668    
          134.778         134.897         135.025         135.166         133.554         133.586         133.606         133.619         133.626         133.617    
          133.625         133.636         133.649         133.660         133.670         133.678         133.686         133.692         133.697         133.702    
          133.706         133.710         133.715         133.721         133.730         133.751         133.797         133.857         133.893         133.861    
          133.891         133.922         133.934         133.918         133.934         133.949         133.966         133.948         133.954         133.995    
          134.017         133.970         134.000         134.059         134.131         134.223         134.327         134.437         134.548         134.661    
          134.781         134.913         135.065         135.267         135.599         135.821         135.990         136.122         136.235         136.336    
          136.429         136.516         136.596         136.673         136.750         136.827         136.906         136.983         137.060         137.138    
          137.220         137.295         137.367         137.436         137.503         137.567         137.635         137.781         137.949         138.053    
          138.126         138.212         138.358         138.506         138.586         138.764         138.951         139.114         139.270         139.527    
          133.551         133.580         133.599         133.607         133.597         133.605         133.614         133.618         133.614         133.617    
          133.624         133.615         133.623         133.635         133.650         133.663         133.675         133.686         133.696         133.705    
          133.714         133.722         133.731         133.740         133.751         133.765         133.782         133.808         133.847         133.892    
          133.933         133.960         133.966         133.971         133.975         133.979         133.997         134.019         133.975         133.982    
          134.052         134.085         133.997         134.036         134.163         134.290         134.410         134.528         134.647         134.774    
          134.913         135.066         135.249         135.473         135.666         135.832         135.970         136.090         136.196         136.293    
          136.384         136.472         136.557         136.636         136.719         136.801         136.884         136.967         137.053         137.142    
          137.230         137.319         137.411         137.505         137.603         137.726         137.861         137.999         138.125         138.238    
          138.351         138.488         138.629         138.836         138.976         139.176         139.394         139.640         140.081         140.795    
          133.550         133.577         133.600         133.619         133.636         133.652         133.667         133.681         133.694         133.706    
          133.718         133.730         133.742         133.754         133.767         133.782         133.800         133.822         133.849         133.881    
          133.917         133.951         133.979         133.998         134.009         134.007         134.001         134.016         134.001         134.100    
          134.247         134.380         134.502         134.626         134.759         134.897         135.043         135.210         135.388         135.555    
          135.714         135.852         135.975         136.087         136.189         136.283         136.375         136.463         136.547         136.632    
          136.719         136.807         136.895         136.988         137.087         137.188         137.286         137.398         137.503         137.613    
          137.746         137.882         138.012         138.153         138.278         138.401         138.540         138.691         138.919         139.075    
          139.292         139.516         139.783         140.169         140.642         141.100         133.549         133.576         133.600         133.620    
          133.638         133.655         133.671         133.687         133.702         133.717         133.731         133.745         133.760         133.775    
          133.792         133.810         133.831         133.854         133.881         133.911         133.942         133.974         134.002         134.026    
          134.045         134.041         134.036         134.062         134.067         134.026         134.061         134.078         134.106         134.199    
          134.344         134.469         134.601         134.735         134.870         135.008         135.164         135.323         135.475         135.624    
          135.758         135.882         135.996         136.100         136.197         136.291         136.382         136.470         136.560         136.650    
          136.744         136.839         136.938         137.046         137.158         137.260         137.388         137.500         137.623         137.756    
          137.895         138.025         138.173         138.305         138.430         138.570         138.775         138.974         139.129         139.376    
          139.588         139.843         140.180         140.536         140.922         141.319         133.549         133.577         133.601         133.622    
          133.642         133.660         133.677         133.694         133.710         133.727         133.744         133.760         133.777         133.795    
          133.814         133.834         133.856         133.881         133.908         133.937         133.967         133.997         134.026         134.054    
          134.079         134.102         134.111         134.125         134.130         134.142         134.148         134.200         134.152         134.186    
          134.300         134.434         134.570         134.702         134.830         134.968         135.123         135.269         135.413         135.550    
          135.682         135.804         135.919         136.023         136.122         136.218         136.311         136.405         136.498         136.593    
          136.690         136.791         136.898         137.011         137.136         137.240         137.372         137.507         137.629         137.763    
          137.903         138.030         138.174         138.345         138.457         138.636         138.827         139.016         139.175         139.414    
          139.625         139.868         140.154         140.466         140.795         141.138         141.486         133.550         133.579         133.603    
          133.625         133.645         133.664         133.683         133.701         133.719         133.737         133.756         133.774         133.793    
          133.813         133.834         133.856         133.879         133.905         133.932         133.961         133.991         134.021         134.051    
          134.080         134.109         134.138         134.168         134.182         134.202         134.196         134.211         134.247         134.293    
          134.224         134.275         134.380         134.522         134.657         134.782         134.936         135.083         135.223         135.360    
          135.491         135.617         135.738         135.851         135.955         136.054         136.152         136.248         136.344         136.442    
          136.542         136.644         136.750         136.862         136.982         137.112         137.223         137.361         137.509         137.633    
          137.773         137.901         138.035         138.197         138.380         138.488         138.662         138.858         139.045         139.209    
          139.437         139.642         139.869         140.125         140.404         140.696         140.993         141.299         141.610         133.552    
          133.581         133.606         133.628         133.649         133.669         133.689         133.708         133.728         133.747         133.766    
          133.787         133.808         133.829         133.852         133.875         133.900         133.927         133.955         133.984         134.014    
          134.044         134.075         134.107         134.137         134.168         134.198         134.225         134.235         134.240         134.242    
          134.243         134.299         134.354         134.254         134.323         134.450         134.596         134.733         134.898         135.045    
          135.184         135.314         135.441         135.562         135.681         135.790         135.894         135.994         136.092         136.191    
          136.290         136.392         136.497         136.604         136.715         136.832         136.957         137.090         137.212         137.354    
          137.503         137.637         137.775         137.906         138.038         138.213         138.386         138.543         138.706         138.877    
          139.061         139.245         139.445         139.648         139.860         140.095         140.347         140.613         140.882         141.147    
          141.422         141.697         133.555         133.584         133.609         133.632         133.654         133.675         133.695         133.716    
          133.736         133.757         133.777         133.799         133.822         133.845         133.869         133.894         133.920         133.947    
          133.975         134.005         134.036         134.067         134.100         134.131         134.164         134.196         134.226         134.252    
          134.265         134.250         134.273         134.267         134.256         134.355         134.417         134.299         134.379         134.526    
          134.688         134.847         135.008         135.148         135.276         135.399         135.516         135.628         135.736         135.838    
          135.938         136.037         136.137         136.240         136.347         136.456         136.569         136.686         136.808         136.938    
          137.072         137.204         137.349         137.498         137.638         137.775         137.912         138.045         138.234         138.411    
          138.571         138.735         138.911         139.082         139.262         139.445         139.647         139.849         140.064         140.297    
          140.545         140.798         141.018         141.119         140.972         141.090         141.319         141.673         133.557         133.586    
          133.612         133.636         133.658         133.680         133.701         133.723         133.744         133.766         133.788         133.810    
          133.835         133.860         133.885         133.911         133.938         133.966         133.995         134.026         134.057         134.090    
          134.123         134.157         134.191         134.224         134.256         134.283         134.302         134.304         134.269         134.309    
          134.310         134.305         134.287         134.314         134.303         134.425         134.510         134.375         134.487         134.647    
          134.786         134.850         134.769         134.844         134.968         135.116         135.244         135.363         135.474         135.581    
          135.686         135.785         135.885         135.984         136.086         136.192         136.304         136.418         136.537         136.662    
          136.789         136.923         137.062         137.200         137.347         137.495         137.637         137.778         137.920         138.074    
          138.253         138.427         138.595         138.763         138.933         139.104         139.268         139.447         139.642         139.835    
          140.037         140.254         140.489         140.698         140.793         140.669         140.760         140.912         140.963         140.897    
          140.949         141.048         140.903         141.012         141.253         141.644         133.560         133.590         133.616         133.640    
          133.663         133.685         133.707         133.730         133.752         133.775         133.798         133.821         133.846         133.873    
          133.899         133.926         133.954         133.984         134.014         134.046         134.079         134.112         134.147         134.183    
          134.218         134.253         134.287         134.318         134.343         134.358         134.347         134.343         134.370         134.367    
          134.348         134.463         134.345         134.442         134.612         134.755         134.822         134.854         134.818         134.851    
          134.744         134.827         134.919         134.975         134.908         134.973         135.087         135.215         135.330         135.436    
          135.538         135.636         135.733         135.833         135.932         136.035         136.145         136.260         136.382         136.508    
          136.640         136.773         136.912         137.056         137.200         137.347         137.495         137.637         137.790         137.936    
          138.093         138.266         138.448         138.617         138.785         138.953         139.115         139.276         139.450         139.633    
          139.820         140.013         140.215         140.436         140.667         140.914         141.212         141.620         133.563         133.593    
          133.619         133.644         133.667         133.689         133.712         133.736         133.759         133.783         133.807         133.832    
          133.857         133.884         133.913         133.941         133.970         134.001         134.033         134.066         134.100         134.135    
          134.171         134.209         134.246         134.282         134.320         134.356         134.390         134.416         134.422         134.373    
          134.392         134.420         134.388         134.581         134.735         134.805         134.840         134.801         134.841         134.735    
          134.801         134.840         134.805         134.839         134.899         134.968         134.897         134.965         135.047         135.095    
          135.039         135.094         135.192         135.302         135.401         135.496         135.589         135.682         135.776         135.875    
          135.980         136.093         136.216         136.346         136.481         136.619         136.760         136.904         137.052         137.205    
          137.352         137.500         137.643         137.800         137.953         138.110         138.284         138.471         138.633         138.761    
          138.835         138.765         138.848         138.966         139.122         139.284         139.420         139.488         139.418         139.478    
          139.509         139.480         139.511         139.589         139.661         139.582         139.664         139.806         139.991         140.183    
          140.392         140.618         140.863         141.168         141.602         133.566         133.597         133.623         133.647         133.670    
          133.693         133.717         133.741         133.766         133.790         133.816         133.842         133.869         133.896         133.917    
          133.928         133.921         133.934         133.954         133.985         134.017         134.051         134.085         134.121         134.158    
          134.196         134.235         134.273         134.313         134.355         134.400         134.440         134.480         134.511         134.489    
          134.479         134.545         134.555         134.497         134.634         134.567         134.685         134.745         134.828         134.774    
          134.839         134.885         134.913         134.887         134.916         134.968         134.909         134.972         135.024         135.046    
          135.023         135.045         135.089         135.034         135.086         135.159         135.200         135.151         135.197         135.277    
          135.369         135.457         135.544         135.629         135.716         135.811         135.917         136.036         136.170         136.311    
          136.455         136.602         136.751         136.903         137.057         137.178         137.239         137.176         137.246         137.359    
          137.507         137.658         137.811         137.968         138.127         138.299         138.482         138.651         138.775         138.837    
          138.871         138.839         138.873         138.786         138.857         138.938         139.006         138.946         139.011         139.127    
          139.286         139.418         139.499         139.418         139.500         139.567         139.600         139.568         139.601         139.665    
          139.586         139.665         139.794         139.975         140.158         140.357         140.577         140.819         141.127         141.580    
          133.569         133.603         133.627         133.649         133.672         133.696         133.721         133.746         133.771         133.797    
          133.823         133.851         133.879         133.899         133.910         133.903         133.915         133.922         133.927         133.924    
          133.930         133.940         133.932         133.944         133.967         134.000         134.033         134.068         134.104         134.142    
          134.181         134.220         134.259         134.301         134.345         134.393         134.441         134.490         134.542         134.595    
          134.660         134.727         134.757         134.769         134.795         134.848         134.926         134.967         134.989         134.970    
          134.991         134.935         134.986         135.034         135.085         135.036         135.084         135.137         135.155         135.136    
          135.154         135.189         135.143         135.182         135.255         135.336         135.411         135.491         135.571         135.652    
          135.741         135.843         135.969         136.114         136.275         136.433         136.590         136.748         136.909         137.035    
          137.097         137.039         137.101         137.162         137.192         137.164         137.195         137.249         137.188         137.251    
          137.333         137.397         137.318         137.349         137.321         137.352         137.407         137.519         137.671         137.824    
          137.981         138.143         138.312         138.487         138.665         138.826         138.988         139.107         139.170         139.108    
          139.163         139.191         139.165         139.193         139.256         139.321         139.254         139.328         139.419         139.486    
          139.520         139.488         139.521         139.420         139.506         139.586         139.662         139.593         139.658         139.789    
          139.960         140.141         140.336         140.549         140.789         141.100         141.561         133.617         133.629         133.649    
          133.673         133.698         133.723         133.749         133.776         133.803         133.830         133.858         133.887         133.917    
          133.947         133.980         134.014         134.049         134.085         134.123         134.163         134.203         134.242         134.284    
          134.329         134.378         134.428         134.480         134.535         134.597         134.663         134.734         134.793         134.823    
          134.804         134.839         134.888         134.950         134.982         135.000         134.984         135.002         134.959         134.996    
          135.037         135.083         135.041         135.083         135.150         135.230         135.298         135.365         135.431         135.498    
          135.566         135.646         135.746         135.881         136.049         136.237         136.415         136.582         136.748         136.912    
          137.074         137.230         137.345         137.417         137.357         137.419         137.533         137.685         137.835         137.997    
          138.159         138.326         138.498         138.635         138.708         138.636         138.700         138.733         138.703         138.736    
          138.800         138.872         138.801         138.882         138.961         139.031         138.963         139.040         139.093         139.124    
          139.093         139.128         139.181         139.096         139.133         139.099         139.135         139.170         139.200         139.170    
          139.203         139.258         139.331         139.243         139.276         139.243         139.280         139.335         139.421         139.504    
          139.423         139.505         139.630         139.764         139.830         139.760         139.819         139.850         139.819         139.849    
          139.923         139.987         139.920         139.986         140.130         140.323         140.520         140.770         141.083         141.554    
          133.618         133.644         133.670         133.697         133.724         133.751         133.779         133.807         133.836         133.865    
          133.896         133.927         133.959         133.992         134.027         134.064         134.102         134.142         134.183         134.223    
          134.265         134.310         134.358         134.408         134.460         134.516         134.575         134.643         134.711         134.760    
          134.813         134.773         134.830         134.826         134.856         134.843         134.867         134.912         134.989         135.045    
          135.083         135.049         135.081         135.123         135.153         135.111         135.124         135.109         135.122         135.149    
          135.203         135.265         135.321         135.375         135.432         135.474         135.527         135.550         135.465         135.467    
          135.596         135.653         135.492         135.558         135.750         135.834         135.676         135.793         135.982         136.201    
          136.401         136.580         136.753         136.922         137.085         137.242         137.400         137.551         137.701         137.851    
          138.013         138.174         138.339         138.512         138.642         138.725         138.648         138.714         138.748         138.717    
          138.751         138.808         138.887         138.817         138.887         138.968         139.046         138.972         139.033         139.065    
          139.032         139.068         139.102         139.137         139.106         139.137         139.172         139.205         139.176         139.205    
          139.124         139.196         139.245         139.284         139.248         139.288         139.342         139.254         139.292         139.260    
          139.294         139.332         139.362         139.336         139.365         139.411         139.444         139.413         139.447         139.507    
          139.436         139.507         139.636         139.759         139.828         139.763         139.824         139.956         140.131         140.321    
          140.516         140.764         141.082         141.557         133.636         133.665         133.694         133.723         133.752         133.781    
          133.810         133.840         133.871         133.903         133.936         133.969         134.004         134.040         134.078         134.118    
          134.160         134.202         134.244         134.289         134.336         134.386         134.437         134.491         134.549         134.611    
          134.679         134.747         134.790         134.835         134.798         134.833         134.854         134.871         134.858         134.872    
          134.904         134.940         134.894         134.954         134.999         135.065         135.111         135.140         135.107         135.134    
          135.178         135.225         135.266         135.311         135.331         135.275         135.296         135.361         135.403         135.398    
          135.383         135.381         135.421         135.460         135.424         135.455         135.486         135.498         135.482         135.505    
          135.576         135.639         135.527         135.607         135.739         135.539         135.715         135.934         136.182         136.396    
          136.584         136.763         136.938         137.066         137.129         137.073         137.137         137.218         137.284         137.204    
          137.236         137.207         137.239         137.295         137.414         137.568         137.719         137.872         138.033         138.192    
          138.355         138.528         138.655         138.738         138.661         138.744         138.859         138.979         139.035         139.069    
          139.039         139.069         138.984         139.059         139.131         139.205         139.141         139.198         139.227         139.201    
          139.230         139.285         139.360         139.294         139.370         139.483         139.647         139.806         139.969         140.142    
          140.323         140.504         140.758         141.067         141.595         133.657         133.689         133.720         133.751         133.781    
          133.813         133.844         133.877         133.910         133.944         133.979         134.016         134.053         134.093         134.134    
          134.177         134.221         134.266         134.312         134.361         134.412         134.465         134.521         134.580         134.643    
          134.709         134.776         134.839         134.897         134.930         134.973         134.949         134.983         134.997         135.018    
          135.015         135.041         135.055         135.075         135.063         135.074         135.100         135.124         135.091         135.112    
          135.148         135.162         135.131         135.140         135.182         135.194         135.154         135.161         135.210         135.216    
          135.174         135.183         135.215         135.241         135.253         135.205         135.218         135.213         135.257         135.276    
          135.336         135.292         135.334         135.372         135.381         135.377         135.398         135.429         135.445         135.457    
          135.474         135.468         135.489         135.516         135.564         135.580         135.722         135.642         135.742         135.921    
          136.182         136.402         136.599         136.781         136.956         137.115         137.232         137.309         137.242         137.319    
          137.434         137.588         137.740         137.896         138.057         138.217         138.379         138.548         138.673         138.756    
          138.685         138.749         138.782         138.753         138.786         138.843         138.907         138.853         138.919         138.992    
          139.068         139.005         139.063         139.092         139.067         139.096         139.151         139.224         139.164         139.232    
          139.310         139.368         139.398         139.372         139.403         139.325         139.393         139.466         139.522         139.478    
          139.533         139.661         139.829         139.982         140.149         140.335         140.526         140.769         141.133         141.600    
          133.680         133.714         133.747         133.780         133.813         133.847         133.881         133.915         133.951         133.988    
          134.027         134.067         134.107         134.150         134.195         134.241         134.287         134.334         134.385         134.438    
          134.493         134.549         134.609         134.672         134.736         134.803         134.873         134.940         135.002         135.058    
          135.107         135.154         135.204         135.249         135.297         135.361         135.426         135.494         135.519         135.532    
          135.574         135.595         135.547         135.601         135.604         135.615         135.668         135.745         135.672         135.715    
          135.855         135.966         135.791         135.969         136.190         136.423         136.626         136.810         136.983         137.105    
          137.167         137.115         137.169         137.198         137.176         137.205         137.254         137.332         137.272         137.339    
          137.460         137.614         137.767         137.923         138.084         138.246         138.415         138.582         138.700         138.778    
          138.717         138.784         138.905         139.020         139.089         139.035         139.095         139.218         139.376         139.533    
          139.690         139.850         140.006         140.169         140.351         140.536         140.777         141.134         141.643         133.705    
          133.741         133.777         133.812         133.847         133.883         133.920         133.958         133.997         134.037         134.079    
          134.122         134.167         134.213         134.259         134.307         134.357         134.409         134.463         134.519         134.576    
          134.636         134.698         134.764         134.832         134.902         134.976         135.045         135.113         135.175         135.236    
          135.301         135.363         135.427         135.459         135.490         135.501         135.536         135.565         135.638         135.701    
          135.763         135.778         135.810         135.853         135.903         135.831         136.006         135.955         136.067         136.245    
          136.467         136.664         136.850         137.020         137.133         137.205         137.155         137.218         137.335         137.497    
          137.650         137.800         137.958         138.118         138.284         138.456         138.620         138.776         138.937         139.087    
          139.255         139.410         139.560         139.723         139.876         140.037         140.199         140.380         140.573         140.792    
          141.123         141.659         133.732         133.771         133.808         133.846         133.884         133.923         133.963         134.004    
          134.046         134.090         134.135         134.182         134.229         134.278         134.328         134.379         134.432         134.486    
          134.543         134.601         134.661         134.725         134.791         134.862         134.934         135.010         135.085         135.159    
          135.230         135.302         135.378         135.453         135.492         135.520         135.532         135.566         135.540         135.555    
          135.561         135.576         135.598         135.608         135.640         135.683         135.763         135.836         135.870         135.906    
          135.928         135.974         135.937         135.984         136.024         136.075         136.152         136.344         136.534         136.718    
          136.897         137.068         137.226         137.345         137.404         137.361         137.429         137.539         137.693         137.843    
          137.997         138.158         138.337         138.500         138.657         138.819         138.973         139.130         139.292         139.446    
          139.595         139.755         139.912         140.074         140.236         140.415         140.610         140.830         141.131         141.632    
          133.761         133.802         133.842         133.883         133.925         133.967         134.010         134.055         134.101         134.147    
          134.195         134.245         134.295         134.347         134.400         134.454         134.509         134.566         134.626         134.687    
          134.752         134.820         134.893         134.967         135.045         135.125         135.206         135.287         135.369         135.455    
          135.539         135.624         135.709         135.795         135.875         135.958         136.003         136.053         136.055         136.106    
          136.110         136.168         136.186         136.232         136.295         136.450         136.618         136.787         136.954         137.130    
          137.246         137.302         137.272         137.333         137.368         137.398         137.380         137.411         137.460         137.424    
          137.484         137.595         137.745         137.895         138.046         138.208         138.384         138.545         138.710         138.873    
          139.018         139.175         139.331         139.482         139.634         139.789         139.951         140.110         140.273         140.452    
          140.647         140.862         141.166         141.628         133.791         133.835         133.880         133.924         133.968         134.014    
          134.062         134.099         134.118         134.102         134.122         134.145         134.166         134.142         134.152         134.144    
          134.154         134.171         134.207         134.259         134.312         134.365         134.420         134.475         134.532         134.590    
          134.650         134.713         134.780         134.850         134.924         135.001         135.083         135.168         135.255         135.345    
          135.437         135.533         135.627         135.722         135.817         135.908         135.993         136.079         136.128         136.184    
          136.175         136.210         136.234         136.228         136.251         136.261         136.297         136.293         136.331         136.403    
          136.550         136.708         136.868         137.030         137.190         137.361         137.513         137.664         137.811         137.952    
          138.103         138.259         138.432         138.602         138.771         138.922         139.070         139.224         139.374         139.524    
          139.675         139.824         139.987         140.151         140.314         140.491         140.690         140.906         141.198         141.636    
          133.824         133.872         133.920         133.968         134.016         134.066         134.117         134.153         134.177         134.158    
          134.179         134.218         134.272         134.327         134.382         134.439         134.496         134.554         134.614         134.675    
          134.739         134.809         134.881         134.956         135.037         135.122         135.213         135.308         135.408         135.510    
          135.616         135.723         135.826         135.926         135.973         136.007         136.016         136.059         136.056         136.097    
          136.086         136.104         136.106         136.125         136.145         136.189         136.232         136.274         136.274         136.313    
          136.318         136.355         136.349         136.371         136.486         136.646         136.800         136.957         137.115         137.277    
          137.445         137.598         137.742         137.886         138.023         138.172         138.322         138.483         138.664         138.836    
          138.979         139.116         139.266         139.419         139.567         139.713         139.861         140.026         140.196         140.363    
          140.540         140.741         140.956         141.221         141.636         133.859         133.911         133.963         134.016         134.069    
          134.121         134.174         134.228         134.283         134.340         134.398         134.457         134.516         134.577         134.638    
          134.701         134.767         134.838         134.913         134.991         135.074         135.166         135.265         135.368         135.479    
          135.594         135.711         135.825         135.935         136.035         136.127         136.169         136.213         136.217         136.256    
          136.303         136.372         136.393         136.400         136.440         136.453         136.515         136.588         136.563         136.616    
          136.647         136.638         136.669         136.684         136.750         136.726         136.796         136.895         137.003         137.061    
          137.036         137.102         137.201         137.370         137.537         137.634         137.691         137.664         137.733         137.771    
          137.834         137.807         137.873         137.962         138.097         138.197         138.253         138.224         138.293         138.339    
          138.403         138.349         138.379         138.365         138.393         138.440         138.548         138.680         138.759         138.702    
          138.787         138.884         139.019         139.160         139.312         139.468         139.610         139.750         139.903         140.071    
          140.236         140.406         140.584         140.778         140.993         141.250         141.640         133.896         133.955         134.013    
          134.068         134.123         134.178         134.235         134.293         134.352         134.412         134.474         134.536         134.599    
          134.662         134.728         134.796         134.869         134.947         135.030         135.118         135.215         135.325         135.439    
          135.562         135.689         135.821         135.946         136.061         136.164         136.257         136.341         136.383         136.418    
          136.424         136.463         136.497         136.516         136.543         136.574         136.597         136.619         136.630         136.648    
          136.626         136.700         136.689         136.732         136.759         136.754         136.782         136.779         136.851         136.831    
          136.904         136.938         136.998         136.983         137.051         137.059         137.088         137.080         137.108         137.153    
          137.134         137.191         137.299         137.465         137.569         137.629         137.599         137.670         137.680         137.709    
          137.695         137.724         137.771         137.742         137.812         137.845         137.892         137.919         137.908         137.935    
          137.883         137.952         137.989         138.052         138.027         138.096         138.126         138.182         138.162         138.224    
          138.257         138.328         138.294         138.362         138.402         138.474         138.431         138.501         138.610         138.720    
          138.777         138.808         138.783         138.812         138.733         138.809         138.869         138.930         138.882         138.949    
          139.048         139.204         139.311         139.371         139.324         139.397         139.460         139.525         139.482         139.549    
          139.610         139.673         139.632         139.699         139.755         139.816         139.779         139.843         139.908         139.975    
          139.935         140.003         140.070         140.132         140.096         140.160         140.233         140.304         140.257         140.340    
          140.407         140.481         140.433         140.516         140.580         140.652         140.603         140.684         140.818         141.024    
          141.279         141.634         133.940         134.003         134.062         134.121         134.180         134.239         134.300         134.362    
          134.424         134.489         134.554         134.620         134.687         134.755         134.827         134.904         134.987         135.073    
          135.169         135.274         135.389         135.520         135.660         135.808         135.952         136.083         136.196         136.297    
          136.388         136.420         136.448         136.465         136.500         136.463         136.478         136.485         136.501         136.523    
          136.535         136.565         136.601         136.639         136.679         136.667         136.733         136.748         136.813         136.801    
          136.866         136.890         136.934         136.961         136.955         136.982         136.941         137.007         137.035         137.104    
          137.087         137.141         137.238         137.403         137.553         137.644         137.712         137.681         137.752         137.783    
          137.829         137.855         137.844         137.871         137.820         137.887         137.920         137.993         137.961         138.009    
          138.036         138.024         138.053         138.063         138.109         138.136         138.123         138.149         138.074         138.102    
          138.091         138.116         138.162         138.195         138.238         138.264         138.251         138.276         138.232         138.286    
          138.323         138.370         138.395         138.381         138.406         138.333         138.359         138.345         138.370         138.416    
          138.456         138.531         138.485         138.557         138.653         138.748         138.823         138.766         138.844         138.898    
          138.967         138.924         138.985         139.049         139.107         139.072         139.132         139.198         139.257         139.221    
          139.282         139.345         139.418         139.374         139.435         139.553         139.710         139.871         140.013         140.175    
          140.291         140.374         140.321         140.399         140.462         140.542         140.492         140.564         140.631         140.716    
          140.660         140.736         140.817         140.899         140.836         140.927         141.065         141.298         141.634         133.986    
          134.051         134.115         134.178         134.241         134.305         134.369         134.434         134.503         134.572         134.642    
          134.713         134.785         134.862         134.943         135.032         135.125         135.229         135.340         135.475         135.630    
          135.789         135.954         136.093         136.228         136.348         136.438         136.513         136.575         136.622         136.644    
          136.663         136.662         136.691         136.713         136.705         136.731         136.711         136.758         136.785         136.778    
          136.806         136.767         136.832         136.857         136.923         136.910         136.973         136.998         137.066         137.047    
          137.109         137.191         137.353         137.498         137.644         137.729         137.770         137.795         137.784         137.810    
          137.767         137.823         137.858         137.926         137.900         137.957         137.974         138.002         137.988         138.015    
          138.063         138.028         138.096         138.128         138.195         138.157         138.220         138.302         138.380         138.447    
          138.408         138.479         138.510         138.583         138.542         138.612         138.655         138.708         138.681         138.736    
          138.790         138.862         138.819         138.878         138.990         139.142         139.295         139.449         139.610         139.767    
          139.925         140.087         140.250         140.411         140.573         140.738         140.865         140.955         140.889         140.970    
          141.061         141.151         141.077         141.177         141.334         141.641         134.033         134.102         134.170         134.238    
          134.307         134.375         134.442         134.514         134.590         134.665         134.740         134.818         134.900         134.988    
          135.081         135.186         135.302         135.442         135.587         135.759         135.931         136.102         136.253         136.366    
          136.472         136.554         136.624         136.678         136.681         136.683         136.719         136.714         136.711         136.733    
          136.730         136.679         136.720         136.752         136.729         136.763         136.700         136.734         136.771         136.720    
          136.764         136.810         136.856         136.884         136.873         136.901         136.839         136.918         136.958         137.022    
          137.008         137.064         137.075         137.102         137.094         137.120         137.162         137.144         137.199         137.297    
          137.440         137.578         137.715         137.846         137.979         138.066         138.108         138.133         138.120         138.144    
          138.098         138.154         138.186         138.250         138.220         138.273         138.363         138.438         138.506         138.466    
          138.538         138.570         138.633         138.603         138.653         138.747         138.900         139.056         139.205         139.349    
          139.517         139.676         139.831         139.995         140.154         140.317         140.477         140.634         140.782         140.955    
          141.099         141.203         141.116         141.209         141.332         141.466         141.342         141.475         141.706         141.708    
          134.082         134.156         134.230         134.303         134.376         134.450         134.524         134.607         134.687         134.768    
          134.854         134.944         135.040         135.140         135.252         135.376         135.538         135.684         135.866         136.043    
          136.217         136.363         136.485         136.586         136.669         136.732         136.778         136.774         136.774         136.822    
          136.832         136.763         136.735         136.830         136.787         136.872         136.962         136.922         137.008         137.108    
          137.259         137.391         137.522         137.655         137.788         137.918         138.046         138.168         138.291         138.418    
          138.499         138.568         138.526         138.594         138.675         138.817         138.971         139.118         139.267         139.417    
          139.588         139.744         139.901         140.064         140.230         140.389         140.538         140.688         140.836         140.991    
          141.167         141.381         141.625         134.134         134.214         134.292         134.372         134.453         134.532         134.623    
          134.711         134.799         134.893         134.993         135.096         135.204         135.328         135.471         135.636         135.810    
          136.016         136.195         136.361         136.497         136.617         136.711         136.791         136.852         136.896         136.938    
          136.981         137.021         137.080         137.085         137.137         137.222         137.357         137.478         137.604         137.734    
          137.861         137.984         138.106         138.225         138.353         138.443         138.494         138.467         138.532         138.563    
          138.627         138.600         138.653         138.748         138.892         139.040         139.189         139.347         139.502         139.662    
          139.826         139.986         140.168         140.327         140.465         140.607         140.738         140.872         141.016         141.168    
          141.366         141.608         134.187         134.274         134.362         134.448         134.539         134.636         134.735         134.833    
          134.935         135.045         135.159         135.285         135.430         135.588         135.810         136.023         136.206         136.381    
          136.548         136.683         136.757         136.838         136.916         136.976         137.022         137.078         137.132         137.162    
          137.204         137.216         137.258         137.264         137.306         137.316         137.360         137.452         137.567         137.688    
          137.807         137.926         138.005         138.056         138.031         138.097         138.124         138.176         138.161         138.215    
          138.247         138.300         138.284         138.338         138.376         138.429         138.410         138.465         138.501         138.567    
          138.539         138.595         138.691         138.838         138.974         139.119         139.278         139.449         139.605         139.768    
          139.955         140.167         140.349         140.472         140.593         140.689         140.792         140.898         141.003         141.130    
          141.366         141.604         134.241         134.339         134.437         134.539         134.646         134.757         134.868         134.986    
          135.109         135.244         135.395         135.576         135.825         136.007         136.194         136.378         136.552         136.704    
          136.833         136.952         136.994         137.059         137.113         137.163         137.212         137.258         137.334         137.376    
          137.418         137.423         137.465         137.482         137.523         137.525         137.571         137.649         137.763         137.831    
          137.879         137.859         137.924         137.948         137.997         137.988         138.041         138.067         138.133         138.109    
          138.163         138.246         138.370         138.495         138.649         138.802         138.941         139.072         139.226         139.391    
          139.591         139.756         139.996         140.229         140.379         140.506         140.609         140.693         140.768         140.830    
          140.908         140.958         140.873         134.298         134.413         134.527         134.649         134.778         134.907         135.044    
          135.194         135.355         135.568         135.811         135.996         136.186         136.377         136.562         136.732         136.879    
          137.003         137.105         137.188         137.258         137.278         137.308         137.350         137.395         137.459         137.533    
          137.582         137.627         137.628         137.675         137.680         137.723         137.727         137.775         137.793         137.838    
          137.837         137.886         137.911         137.975         137.959         138.010         138.088         138.212         138.337         138.467    
          138.626         138.774         138.914         139.053         139.187         139.365         139.566         139.798         140.087         140.270    
          140.435         140.580         140.695         140.775         140.818         140.873         140.875         141.154         134.360         134.497    
          134.641         134.794         134.946         135.121         135.304         135.546         135.794         135.987         136.183         136.380    
          136.576         136.762         136.929         137.072         137.189         137.286         137.366         137.427         137.475         137.490    
          137.506         137.545         137.598         137.670         137.748         137.853         137.973         138.092         138.207         138.334    
          138.457         138.610         138.747         138.877         139.022         139.160         139.291         139.521         139.902         140.122    
          140.325         140.509         140.674         140.821         140.932         140.988         140.945         141.741         134.427         134.605    
          134.795         135.008         135.224         135.469         135.765         135.972         136.179         136.386         136.592         136.794    
          136.982         137.146         137.283         137.394         137.485         137.561         137.622         137.668         137.705         137.712    
          137.736         137.763         137.843         137.926         138.021         138.130         138.247         138.363         138.489         138.606    
          138.738         138.863         138.983         139.140         139.306         139.447         139.883         140.135         140.372         140.586    
          140.775         140.938         142.139         142.310         142.439         134.502         134.781         135.056         135.359         135.720    
          135.943         136.164         136.385         136.605         136.822         137.032         137.222         137.382         137.511         137.614    
          137.700         137.773         137.844         137.904         137.947         137.981         138.024         138.102         138.205         138.305    
          138.405         138.493         138.567         138.656         138.748         138.827         138.939         139.036         139.176         139.364    
          139.603         139.770         140.541         141.063         141.500         141.907         142.213         142.486         134.664         135.108    
          135.572         135.897         136.132         136.366         136.602         136.839         137.070         137.290         137.482         137.639    
          137.758         137.849         137.932         137.995         138.101         138.952         138.887         138.767         138.727         138.807    
          139.084         139.116         139.158         139.211         139.233         139.309         139.350         139.334         139.419         139.448    
          139.623         139.880         140.127         140.240         135.164         135.832         136.091         136.329         136.574         136.829    
          137.085         137.335         137.570         137.767         137.923         138.028         138.095         138.189         138.187         139.502    
          136.071         136.300         136.527         136.782         137.061         137.344         137.625         137.883         138.098         138.255    
          138.339         138.322         139.928         136.606         137.068         137.581         138.152         138.575         139.103         139.450    
          139.750         139.963         140.100    
1
  HEAD IN LAYER   2 AT END OF TIME STEP  48 IN STRESS PERIOD    2
  ---------------------------------------------------------------------------

                1               2               3               4               5               6               7               8               9              10
               11              12              13              14              15              16              17              18              19              20
               21              22              23              24              25              26              27              28              29              30
               31              32              33              34              35              36              37              38              39              40
               41              42              43              44              45              46              47              48              49              50
               51              52              53              54              55              56              57              58              59              60
               61              62              63              64              65              66              67              68              69              70
               71              72              73              74              75              76              77              78              79              80
               81              82              83              84              85              86              87              88              89              90
               91              92              93              94              95              96              97              98              99             100
              101             102             103             104             105             106             107             108             109             110
              111             112             113             114             115             116             117             118             119             120
              121             122             123             124             125             126             127             128             129             130
              131             132             133             134             135             136             137             138             139             140
              141             142             143             144             145             146             147             148             149             150
              151             152             153             154             155             156             157             158             159             160
              161             162             163             164             165             166             167             168             169             170
              171             172             173             174             175             176             177             178             179             180
              181             182             183             184             185             186             187             188             189             190
              191             192             193             194             195             196             197             198             199             200
              201             202             203             204             205             206             207             208             209             210
              211             212             213             214             215             216             217             218             219             220
              221             222             223             224             225             226             227             228             229             230
              231             232             233             234             235             236             237             238             239             240
              241             242             243             244             245             246             247             248             249             250
              251             252             253             254             255             256             257             258             259             260
              261             262             263             264             265             266             267             268             269             270
              271             272             273             274             275             276             277             278             279             280
              281             282             283             284             285             286             287             288             289             290
              291             292             293             294             295             296             297             298             299             300
              301             302             303             304             305             306             307             308             309             310
              311             312             313             314             315             316             317             318             319             320
              321             322             323             324             325             326             327             328             329             330
              331             332             333             334             335             336             337             338             339             340
              341             342             343             344             345             346             347             348             349             350
              351             352             353             354             355             356             357             358             359             360
              361             362             363             364             365             366             367             368             369             370
              371             372             373             374             375             376             377             378             379             380
              381             382             383             384             385             386             387             388             389             390
              391             392             393             394             395             396             397             398             399             400
              401             402             403             404             405             406             407             408             409             410
              411             412             413             414             415             416             417             418             419             420
              421             422             423             424             425             426             427             428             429             430
              431             432             433             434             435             436             437             438             439             440
              441             442             443             444             445             446             447             448             449             450
              451             452             453             454             455             456             457             458             459             460
              461             462             463             464             465             466             467             468             469             470
              471             472             473             474             475             476             477             478             479             480
              481             482             483             484             485             486             487             488             489             490
              491             492             493             494             495             496             497             498             499             500
              501             502             503             504             505             506             507             508             509             510
              511             512             513             514             515             516             517             518             519             520
              521             522             523             524             525             526             527             528             529             530
              531             532             533             534             535             536             537             538             539             540
              541             542             543             544             545             546             547             548             549             550
              551             552             553             554             555             556             557             558             559             560
              561             562             563             564             565             566             567             568             569             570
              571             572             573             574             575             576             577             578             579             580
              581             582             583             584             585             586             587             588             589             590
              591             592             593             594             595             596             597             598             599             600
              601             602             603             604             605             606             607             608             609             610
              611             612             613             614             615             616             617             618             619             620
              621             622             623             624             625             626             627             628             629             630
              631             632             633             634             635             636             637             638             639             640
              641             642             643             644             645             646             647             648             649             650
              651             652             653             654             655             656             657             658             659             660
              661             662             663             664             665             666             667             668             669             670
              671             672             673             674             675             676             677             678             679             680
              681             682             683             684             685             686             687             688             689             690
              691             692             693             694             695             696             697             698             699             700
              701             702             703             704             705             706             707             708             709             710
              711             712             713             714             715             716             717             718             719             720
              721             722             723             724             725             726             727             728             729             730
              731             732             733             734             735             736             737             738             739             740
              741             742             743             744             745             746             747             748             749             750
              751             752             753             754             755             756             757             758             759             760
              761             762             763             764             765             766             767             768             769             770
              771             772             773             774             775             776             777             778             779             780
              781             782             783             784             785             786             787             788             789             790
              791             792             793             794             795             796             797             798             799             800
              801             802             803             804             805             806             807             808             809             810
              811             812             813             814             815             816             817             818             819             820
              821             822             823             824             825             826             827             828             829             830
              831             832             833             834             835             836             837             838             839             840
              841             842             843             844             845             846             847             848             849             850
              851             852             853             854             855             856             857             858             859             860
              861             862             863             864             865             866             867             868             869             870
              871             872             873             874             875             876             877             878             879             880
              881             882             883             884             885             886             887             888             889             890
              891             892             893             894             895             896             897             898             899             900
              901             902             903             904             905             906             907             908             909             910
              911             912             913             914             915             916             917             918             919             920
              921             922             923             924             925             926             927             928             929             930
              931             932             933             934             935             936             937             938             939             940
              941             942             943             944             945             946             947             948             949             950
              951             952             953             954             955             956             957             958             959             960
              961             962             963             964             965             966             967             968             969             970
              971             972             973             974             975             976             977             978             979             980
              981             982             983             984             985             986             987             988             989             990
              991             992             993             994             995             996             997             998             999            1000
             1001            1002            1003            1004            1005            1006            1007            1008            1009            1010
             1011            1012            1013            1014            1015            1016            1017            1018            1019            1020
             1021            1022            1023            1024            1025            1026            1027            1028            1029            1030
             1031            1032            1033            1034            1035            1036            1037            1038            1039            1040
             1041            1042            1043            1044            1045            1046            1047            1048            1049            1050
             1051            1052            1053            1054            1055            1056            1057            1058            1059            1060
             1061            1062            1063            1064            1065            1066            1067            1068            1069            1070
             1071            1072            1073            1074            1075            1076            1077            1078            1079            1080
             1081            1082            1083            1084            1085            1086            1087            1088            1089            1090
             1091            1092            1093            1094            1095            1096            1097            1098            1099            1100
             1101            1102            1103            1104            1105            1106            1107            1108            1109            1110
             1111            1112            1113            1114            1115            1116            1117            1118            1119            1120
             1121            1122            1123            1124            1125            1126            1127            1128            1129            1130
             1131            1132            1133            1134            1135            1136            1137            1138            1139            1140
             1141            1142            1143            1144            1145            1146            1147            1148            1149            1150
             1151            1152            1153            1154            1155            1156            1157            1158            1159            1160
             1161            1162            1163            1164            1165            1166            1167            1168            1169            1170
             1171            1172            1173            1174            1175            1176            1177            1178            1179            1180
             1181            1182            1183            1184            1185            1186            1187            1188            1189            1190
             1191            1192            1193            1194            1195            1196            1197            1198            1199            1200
             1201            1202            1203            1204            1205            1206            1207            1208            1209            1210
             1211            1212            1213            1214            1215            1216            1217            1218            1219            1220
             1221            1222            1223            1224            1225            1226            1227            1228            1229            1230
             1231            1232            1233            1234            1235            1236            1237            1238            1239            1240
             1241            1242            1243            1244            1245            1246            1247            1248            1249            1250
             1251            1252            1253            1254            1255            1256            1257            1258            1259            1260
             1261            1262            1263            1264            1265            1266            1267            1268            1269            1270
             1271            1272            1273            1274            1275            1276            1277            1278            1279            1280
             1281            1282            1283            1284            1285            1286            1287            1288            1289            1290
             1291            1292            1293            1294            1295            1296            1297            1298            1299            1300
             1301            1302            1303            1304            1305            1306            1307            1308            1309            1310
             1311            1312            1313            1314            1315            1316            1317            1318            1319            1320
             1321            1322            1323            1324            1325            1326            1327            1328            1329            1330
             1331            1332            1333            1334            1335            1336            1337            1338            1339            1340
             1341            1342            1343            1344            1345            1346            1347            1348            1349            1350
             1351            1352            1353            1354            1355            1356            1357            1358            1359            1360
             1361            1362            1363            1364            1365            1366            1367            1368            1369            1370
             1371            1372            1373            1374            1375            1376            1377            1378            1379            1380
             1381            1382            1383            1384            1385            1386            1387            1388            1389            1390
             1391            1392            1393            1394            1395            1396            1397            1398            1399            1400
             1401            1402            1403            1404            1405            1406            1407            1408            1409            1410
             1411            1412            1413            1414            1415            1416            1417            1418            1419            1420
             1421            1422            1423            1424            1425            1426            1427            1428            1429            1430
             1431            1432            1433            1434            1435            1436            1437            1438            1439            1440
             1441            1442            1443            1444            1445            1446            1447            1448            1449            1450
             1451            1452            1453            1454            1455            1456            1457            1458            1459            1460
             1461            1462            1463            1464            1465            1466            1467            1468            1469            1470
             1471            1472            1473            1474            1475            1476            1477            1478            1479            1480
             1481            1482            1483            1484            1485            1486            1487            1488            1489            1490
             1491            1492            1493            1494            1495            1496            1497            1498            1499            1500
             1501            1502            1503            1504            1505            1506            1507            1508            1509            1510
             1511            1512            1513            1514            1515            1516            1517            1518            1519            1520
             1521            1522            1523            1524            1525            1526            1527            1528            1529            1530
             1531            1532            1533            1534            1535            1536            1537            1538            1539            1540
             1541            1542            1543            1544            1545            1546            1547            1548            1549            1550
             1551            1552            1553            1554            1555            1556            1557            1558            1559            1560
             1561            1562            1563            1564            1565            1566            1567            1568            1569            1570
             1571            1572            1573            1574            1575            1576            1577            1578            1579            1580
             1581            1582            1583            1584            1585            1586            1587            1588            1589            1590
             1591            1592            1593            1594            1595            1596            1597            1598            1599            1600
             1601            1602            1603            1604            1605            1606            1607            1608            1609            1610
             1611            1612            1613            1614            1615            1616            1617            1618            1619            1620
             1621            1622            1623            1624            1625            1626            1627            1628            1629            1630
             1631            1632            1633            1634            1635            1636            1637            1638            1639            1640
             1641            1642            1643            1644            1645            1646            1647            1648            1649            1650
             1651            1652            1653            1654            1655            1656            1657            1658            1659            1660
             1661            1662            1663            1664            1665            1666            1667            1668            1669            1670
             1671            1672            1673            1674            1675            1676            1677            1678            1679            1680
             1681            1682            1683            1684            1685            1686            1687            1688            1689            1690
             1691            1692            1693            1694            1695            1696            1697            1698            1699            1700
             1701            1702            1703            1704            1705            1706            1707            1708            1709            1710
             1711            1712            1713            1714            1715            1716            1717            1718            1719            1720
             1721            1722            1723            1724            1725            1726            1727            1728            1729            1730
             1731            1732            1733            1734            1735            1736            1737            1738            1739            1740
             1741            1742            1743            1744            1745            1746            1747            1748            1749            1750
             1751            1752            1753            1754            1755            1756            1757            1758            1759            1760
             1761            1762            1763            1764            1765            1766            1767            1768            1769            1770
             1771            1772            1773            1774            1775            1776            1777            1778            1779            1780
             1781            1782            1783            1784            1785            1786            1787            1788            1789            1790
             1791            1792            1793            1794            1795            1796            1797            1798            1799            1800
             1801            1802            1803            1804            1805            1806            1807            1808            1809            1810
             1811            1812            1813            1814            1815            1816            1817            1818            1819            1820
             1821            1822            1823            1824            1825            1826            1827            1828            1829            1830
             1831            1832            1833            1834            1835            1836            1837            1838            1839            1840
             1841            1842            1843            1844            1845            1846            1847            1848            1849            1850
             1851            1852            1853            1854            1855            1856            1857            1858            1859            1860
             1861            1862            1863            1864            1865            1866            1867            1868            1869            1870
             1871            1872            1873            1874            1875            1876            1877            1878            1879            1880
             1881            1882            1883            1884            1885            1886            1887            1888            1889            1890
             1891            1892            1893            1894            1895            1896            1897            1898            1899            1900
             1901            1902            1903            1904            1905            1906            1907            1908            1909            1910
             1911            1912            1913            1914            1915            1916            1917            1918            1919            1920
             1921            1922            1923            1924            1925            1926            1927            1928            1929            1930
             1931            1932            1933            1934            1935            1936            1937            1938            1939            1940
             1941            1942            1943            1944            1945            1946            1947            1948            1949            1950
             1951            1952            1953            1954            1955            1956            1957            1958            1959            1960
             1961            1962            1963            1964            1965            1966            1967            1968            1969            1970
             1971            1972            1973            1974            1975            1976            1977            1978            1979            1980
             1981            1982            1983            1984            1985            1986            1987            1988            1989            1990
             1991            1992            1993            1994            1995            1996            1997            1998            1999            2000
             2001            2002            2003            2004            2005            2006            2007            2008            2009            2010
             2011            2012            2013            2014            2015            2016            2017            2018            2019            2020
             2021            2022            2023            2024            2025            2026            2027            2028            2029            2030
             2031            2032            2033            2034            2035            2036            2037            2038            2039            2040
             2041            2042            2043            2044            2045            2046            2047            2048            2049            2050
             2051            2052            2053            2054            2055            2056            2057            2058            2059            2060
             2061            2062            2063            2064            2065            2066            2067            2068            2069            2070
             2071            2072            2073            2074            2075            2076            2077            2078            2079            2080
             2081            2082            2083            2084            2085            2086            2087            2088            2089            2090
             2091            2092            2093            2094            2095            2096            2097            2098            2099            2100
             2101            2102            2103            2104            2105            2106            2107            2108            2109            2110
             2111            2112            2113            2114            2115            2116            2117            2118            2119            2120
             2121            2122            2123            2124            2125            2126            2127            2128            2129            2130
             2131            2132            2133            2134            2135            2136            2137            2138            2139            2140
             2141            2142            2143            2144            2145            2146            2147            2148            2149            2150
             2151            2152            2153            2154            2155            2156            2157            2158            2159            2160
             2161            2162            2163            2164            2165            2166            2167            2168            2169            2170
             2171            2172            2173            2174            2175            2176            2177            2178            2179            2180
             2181            2182            2183            2184            2185            2186            2187            2188            2189            2190
             2191            2192            2193            2194            2195            2196            2197            2198            2199            2200
             2201            2202            2203            2204            2205            2206            2207            2208            2209            2210
             2211            2212            2213            2214            2215            2216            2217            2218            2219            2220
             2221            2222            2223            2224            2225            2226            2227            2228            2229            2230
             2231            2232            2233            2234            2235            2236            2237            2238            2239            2240
             2241            2242            2243            2244            2245            2246            2247            2248            2249            2250
             2251            2252            2253            2254            2255            2256            2257            2258            2259            2260
             2261            2262            2263            2264            2265            2266            2267            2268            2269            2270
             2271            2272            2273            2274            2275            2276            2277            2278            2279            2280
             2281            2282            2283            2284            2285            2286            2287            2288            2289            2290
             2291            2292            2293            2294            2295            2296            2297            2298            2299            2300
             2301            2302            2303            2304            2305            2306            2307            2308            2309            2310
             2311            2312            2313            2314            2315            2316            2317            2318            2319            2320
             2321            2322            2323            2324            2325            2326            2327            2328            2329            2330
             2331            2332            2333            2334            2335            2336            2337            2338            2339            2340
             2341            2342            2343            2344            2345            2346            2347            2348            2349            2350
             2351            2352            2353            2354            2355            2356            2357            2358            2359            2360
             2361            2362            2363            2364            2365            2366            2367            2368            2369            2370
             2371            2372            2373            2374            2375            2376            2377            2378            2379            2380
             2381            2382            2383            2384            2385            2386            2387            2388            2389            2390
             2391            2392            2393            2394            2395            2396            2397            2398            2399            2400
             2401            2402            2403            2404            2405            2406            2407            2408            2409            2410
             2411            2412            2413            2414            2415            2416            2417            2418            2419            2420
             2421            2422            2423            2424            2425            2426            2427            2428            2429            2430
             2431            2432            2433            2434            2435            2436            2437            2438            2439            2440
             2441            2442            2443            2444            2445            2446            2447            2448            2449            2450
             2451            2452            2453            2454            2455            2456            2457            2458            2459            2460
             2461            2462            2463            2464            2465            2466            2467            2468            2469            2470
             2471            2472            2473            2474            2475            2476            2477            2478            2479            2480
             2481            2482            2483            2484            2485            2486            2487            2488            2489            2490
             2491            2492            2493            2494            2495            2496            2497            2498            2499            2500
             2501            2502            2503            2504            2505            2506            2507            2508            2509            2510
             2511            2512            2513            2514            2515            2516            2517            2518            2519            2520
             2521            2522            2523            2524            2525            2526            2527            2528            2529            2530
             2531            2532            2533            2534            2535            2536            2537            2538            2539            2540
             2541            2542            2543            2544            2545            2546            2547            2548            2549            2550
             2551            2552            2553            2554            2555            2556            2557            2558            2559            2560
             2561            2562            2563            2564            2565            2566            2567            2568            2569            2570
             2571            2572            2573            2574            2575            2576            2577            2578            2579            2580
             2581            2582            2583            2584            2585            2586            2587            2588            2589            2590
             2591            2592            2593            2594            2595            2596            2597            2598            2599            2600
             2601            2602            2603            2604            2605            2606            2607            2608            2609            2610
             2611            2612            2613            2614            2615            2616            2617            2618            2619            2620
             2621            2622            2623            2624            2625            2626            2627            2628            2629            2630
             2631            2632            2633            2634            2635            2636            2637            2638            2639            2640
             2641            2642            2643            2644            2645            2646            2647            2648            2649            2650
             2651            2652            2653            2654            2655            2656            2657            2658            2659            2660
             2661            2662            2663            2664            2665            2666            2667            2668            2669            2670
             2671            2672            2673            2674            2675            2676            2677            2678            2679            2680
             2681            2682            2683            2684            2685            2686            2687            2688            2689            2690
             2691            2692            2693            2694            2695            2696            2697            2698            2699            2700
             2701            2702            2703            2704            2705            2706            2707            2708            2709            2710
             2711            2712            2713            2714            2715            2716            2717            2718            2719            2720
             2721            2722            2723            2724            2725            2726            2727            2728            2729            2730
             2731            2732            2733            2734            2735            2736            2737            2738            2739            2740
             2741            2742            2743            2744            2745            2746            2747            2748            2749            2750
             2751            2752            2753            2754            2755            2756            2757            2758            2759            2760
             2761            2762            2763            2764            2765            2766            2767            2768            2769            2770
             2771            2772            2773            2774            2775            2776            2777            2778            2779            2780
             2781            2782            2783            2784            2785            2786            2787            2788            2789            2790
             2791            2792            2793            2794            2795            2796            2797            2798            2799            2800
             2801            2802            2803            2804            2805            2806            2807            2808            2809            2810
             2811            2812            2813            2814            2815            2816            2817            2818            2819            2820
             2821            2822            2823            2824            2825            2826            2827            2828            2829            2830
             2831            2832            2833            2834            2835            2836            2837            2838            2839            2840
             2841            2842            2843            2844            2845            2846            2847            2848            2849            2850
             2851            2852            2853            2854            2855            2856            2857            2858            2859            2860
             2861            2862            2863            2864            2865            2866            2867            2868            2869            2870
             2871            2872            2873            2874            2875            2876            2877            2878            2879            2880
             2881            2882            2883            2884            2885            2886            2887            2888            2889            2890
             2891            2892            2893            2894            2895            2896            2897            2898            2899            2900
             2901            2902            2903            2904            2905            2906            2907            2908            2909            2910
             2911            2912            2913            2914            2915            2916            2917            2918            2919            2920
             2921            2922            2923            2924            2925            2926            2927            2928            2929            2930
             2931            2932            2933            2934            2935            2936            2937            2938            2939            2940
             2941            2942            2943            2944            2945            2946            2947            2948            2949            2950
             2951            2952            2953            2954            2955            2956            2957            2958            2959            2960
             2961            2962            2963            2964            2965            2966            2967            2968            2969            2970
             2971            2972            2973            2974            2975            2976            2977            2978            2979            2980
             2981            2982            2983            2984            2985            2986            2987            2988            2989            2990
             2991            2992            2993            2994            2995            2996            2997            2998            2999            3000
             3001            3002            3003            3004            3005            3006            3007            3008            3009            3010
             3011            3012            3013            3014            3015            3016            3017            3018            3019            3020
             3021            3022            3023            3024            3025            3026            3027            3028            3029            3030
             3031            3032            3033            3034            3035            3036            3037            3038            3039            3040
             3041            3042            3043            3044            3045            3046            3047            3048            3049            3050
             3051            3052            3053            3054            3055            3056            3057            3058            3059            3060
             3061            3062            3063            3064            3065            3066            3067            3068            3069            3070
             3071            3072            3073            3074            3075            3076            3077            3078            3079            3080
             3081            3082            3083            3084            3085            3086            3087            3088            3089            3090
             3091            3092            3093            3094            3095            3096            3097            3098            3099            3100
             3101            3102            3103            3104            3105            3106            3107            3108            3109            3110
             3111            3112            3113            3114            3115            3116            3117            3118            3119            3120
             3121            3122            3123            3124            3125            3126            3127            3128            3129            3130
             3131            3132            3133            3134            3135            3136            3137            3138            3139            3140
             3141            3142            3143            3144            3145            3146            3147            3148            3149            3150
             3151            3152            3153            3154            3155            3156            3157            3158            3159            3160
             3161            3162            3163            3164            3165            3166            3167            3168            3169            3170
             3171            3172            3173            3174            3175            3176            3177            3178            3179            3180
             3181            3182            3183            3184            3185            3186            3187            3188            3189            3190
             3191            3192            3193            3194            3195            3196            3197            3198            3199            3200
             3201            3202            3203            3204            3205            3206            3207            3208            3209            3210
             3211            3212            3213            3214            3215            3216            3217            3218            3219            3220
             3221            3222            3223            3224            3225            3226            3227            3228            3229            3230
             3231            3232            3233            3234            3235            3236            3237            3238            3239            3240
             3241            3242            3243            3244            3245            3246            3247            3248            3249            3250
             3251            3252            3253            3254            3255            3256            3257            3258            3259            3260
             3261            3262            3263            3264            3265            3266            3267            3268            3269            3270
             3271            3272            3273            3274            3275            3276            3277            3278            3279            3280
             3281            3282            3283            3284            3285            3286            3287            3288            3289            3290
             3291            3292            3293            3294            3295            3296            3297            3298            3299            3300
             3301            3302            3303            3304            3305            3306            3307            3308            3309            3310
             3311            3312            3313            3314            3315            3316            3317            3318            3319            3320
             3321            3322            3323            3324            3325            3326            3327            3328            3329            3330
             3331            3332            3333            3334            3335            3336            3337            3338            3339            3340
             3341            3342            3343            3344            3345            3346            3347            3348            3349            3350
             3351            3352            3353            3354            3355            3356            3357            3358            3359            3360
             3361            3362            3363            3364            3365            3366            3367            3368            3369            3370
             3371            3372            3373            3374            3375            3376            3377            3378            3379            3380
             3381            3382            3383            3384            3385            3386            3387            3388            3389            3390
             3391            3392            3393            3394            3395            3396            3397            3398            3399            3400
             3401            3402            3403            3404            3405            3406            3407            3408            3409            3410
             3411            3412            3413            3414            3415            3416            3417            3418            3419            3420
             3421            3422            3423            3424            3425            3426            3427            3428            3429            3430
             3431            3432            3433            3434            3435            3436            3437            3438            3439            3440
             3441            3442            3443            3444            3445            3446            3447            3448            3449            3450
             3451            3452            3453            3454            3455            3456            3457            3458            3459            3460
             3461            3462            3463            3464            3465            3466            3467            3468            3469            3470
             3471            3472            3473            3474            3475            3476            3477            3478            3479            3480
             3481            3482            3483            3484            3485            3486            3487            3488            3489            3490
             3491            3492            3493            3494            3495            3496            3497            3498            3499            3500
             3501            3502            3503            3504            3505            3506            3507            3508            3509            3510
             3511            3512            3513            3514            3515            3516            3517            3518            3519            3520
             3521            3522            3523            3524            3525            3526            3527            3528            3529            3530
             3531            3532            3533            3534            3535            3536            3537            3538            3539            3540
             3541            3542            3543            3544            3545            3546            3547            3548            3549            3550
             3551            3552            3553            3554            3555            3556            3557            3558            3559            3560
             3561            3562            3563            3564            3565            3566            3567            3568            3569            3570
             3571            3572            3573            3574            3575            3576            3577            3578            3579            3580
             3581            3582            3583            3584            3585            3586            3587            3588            3589            3590
             3591            3592            3593            3594            3595            3596            3597            3598            3599            3600
             3601            3602            3603            3604            3605            3606            3607            3608            3609            3610
             3611            3612            3613            3614            3615            3616            3617            3618            3619            3620
             3621            3622            3623            3624            3625            3626            3627            3628            3629            3630
             3631            3632            3633            3634            3635            3636            3637            3638            3639            3640
             3641            3642            3643            3644            3645            3646            3647            3648            3649            3650
             3651            3652            3653            3654            3655            3656            3657            3658            3659            3660
             3661            3662            3663            3664            3665            3666            3667            3668            3669            3670
             3671            3672            3673            3674            3675            3676            3677            3678            3679            3680
             3681            3682            3683            3684            3685            3686            3687            3688            3689            3690
             3691            3692            3693            3694            3695            3696            3697            3698            3699            3700
             3701            3702            3703            3704            3705            3706            3707            3708            3709            3710
             3711            3712            3713            3714            3715            3716            3717            3718            3719            3720
             3721            3722            3723            3724            3725            3726            3727            3728            3729            3730
             3731            3732            3733            3734            3735            3736            3737            3738            3739            3740
             3741            3742            3743            3744            3745            3746            3747            3748            3749            3750
             3751            3752            3753            3754            3755            3756            3757            3758            3759            3760
             3761            3762            3763            3764            3765            3766            3767            3768            3769            3770
             3771            3772            3773            3774            3775            3776            3777            3778            3779            3780
             3781            3782            3783
 ................................................................................................................................................................
   1      133.708         133.699         133.676         133.642         133.619         133.611         133.612         133.603         133.611         133.647    
          133.700         133.761         133.823         133.887         133.951         134.014         134.075         134.135         134.193         134.250    
          134.304         134.351         134.384         133.686         133.691         133.683         133.663         133.632         133.606         133.594    
          133.605         133.593         133.589         133.593         133.584         133.586         133.615         133.665         133.724         133.788    
          133.854         133.921         133.987         134.052         134.116         134.178         134.239         134.298         134.354         134.407    
          134.459         133.670         133.676         133.678         133.671         133.654         133.630         133.602         133.587         133.585    
          133.590         133.587         133.591         133.602         133.588         133.594         133.625         133.644         133.610         133.632    
          133.679         133.742         133.810         133.881         133.952         134.022         134.091         134.158         134.223         134.288    
          134.351         134.414         134.476         134.529         133.660         133.665         133.669         133.669         133.664         133.652    
          133.634         133.615         133.599         133.592         133.600         133.616         133.597         133.606         133.639         133.658    
          133.623         133.646         133.696         133.765         133.840         133.916         133.992         134.064         134.136         134.205    
          134.275         134.344         134.414         134.483         134.547         134.601         133.651         133.656         133.661         133.665    
          133.666         133.662         133.654         133.643         133.630         133.617         133.608         133.605         133.614         133.631    
          133.613         133.623         133.657         133.679         133.643         133.668         133.723         133.801         133.883         133.963    
          134.039         134.113         134.186         134.259         134.333         134.408         134.484         134.557         134.626         134.685    
          133.641         133.647         133.653         133.659         133.663         133.666         133.665         133.661         133.655         133.647    
          133.638         133.631         133.626         133.626         133.637         133.657         133.639         133.652         133.686         133.714    
          133.676         133.707         133.770         133.858         133.941         134.018         134.092         134.165         134.240         134.318    
          134.398         134.480         134.563         134.643         134.719         134.787         133.629         133.636         133.644         133.651    
          133.658         133.664         133.668         133.670         133.670         133.668         133.665         133.661         133.658         133.655    
          133.655         133.662         133.677         133.702         133.687         133.706         133.741         133.776         133.740         133.779    
          133.846         133.928         134.000         134.071         134.143         134.219         134.299         134.384         134.473         134.563    
          134.655         134.746         134.835         134.920         133.613         133.623         133.632         133.642         133.651         133.659    
          133.667         133.673         133.678         133.681         133.683         133.684         133.685         133.686         133.689         133.693    
          133.704         133.726         133.753         133.790         133.773         133.804         133.836         133.869         133.845         133.879    
          133.926         133.989         134.052         134.119         134.193         134.275         134.365         134.461         134.560         134.661    
          134.766         134.875         134.987         135.102         133.596         133.607         133.618         133.627         133.632         133.626    
          133.631         133.640         133.651         133.661         133.671         133.679         133.686         133.693         133.698         133.704    
          133.709         133.715         133.723         133.734         133.750         133.777         133.821         133.860         133.889         133.871    
          133.896         133.920         133.942         133.925         133.946         133.972         133.994         133.972         133.992         134.025    
          134.049         134.018         134.044         134.093         134.163         134.247         134.342         134.444         134.550         134.661    
          134.777         134.902         135.040         135.199         135.410         135.590         135.743         135.877         136.000         136.112    
          136.216         136.314         136.409         136.501         136.592         136.682         136.771         136.860         136.951         137.042    
          137.135         137.228         137.323         137.420         137.520         137.623         137.733         137.854         137.979         138.096    
          138.211         138.331         138.463         138.604         138.749         138.910         139.079         139.262         139.471         139.668    
          133.594         133.604         133.613         133.618         133.613         133.618         133.624         133.626         133.623         133.626    
          133.631         133.625         133.630         133.640         133.653         133.664         133.676         133.686         133.696         133.705    
          133.714         133.723         133.733         133.743         133.756         133.771         133.791         133.819         133.856         133.900    
          133.944         133.985         134.016         134.038         134.017         134.035         134.065         134.088         134.059         134.080    
          134.123         134.154         134.110         134.144         134.215         134.316         134.423         134.535         134.652         134.776    
          134.910         135.057         135.217         135.393         135.559         135.708         135.840         135.962         136.074         136.179    
          136.279         136.374         136.467         136.559         136.650         136.740         136.831         136.923         137.017         137.113    
          137.210         137.311         137.414         137.520         137.630         137.747         137.869         137.994         138.116         138.238    
          138.365         138.502         138.649         138.809         138.975         139.156         139.369         139.636         139.949         140.328    
          133.593         133.602         133.614         133.627         133.641         133.655         133.669         133.682         133.694         133.706    
          133.718         133.730         133.742         133.755         133.769         133.785         133.804         133.826         133.854         133.887    
          133.924         133.961         133.997         134.032         134.069         134.104         134.134         134.104         134.132         134.189    
          134.289         134.400         134.515         134.635         134.764         134.901         135.048         135.203         135.361         135.516    
          135.659         135.789         135.909         136.021         136.127         136.227         136.324         136.418         136.512         136.605    
          136.697         136.791         136.886         136.984         137.085         137.188         137.295         137.406         137.519         137.636    
          137.758         137.883         138.010         138.137         138.265         138.399         138.542         138.697         138.867         139.041    
          139.232         139.464         139.756         140.075         140.409         140.735         133.593         133.601         133.614         133.629    
          133.643         133.659         133.673         133.688         133.703         133.717         133.731         133.746         133.760         133.776    
          133.793         133.812         133.832         133.856         133.884         133.914         133.947         133.981         134.015         134.049    
          134.084         134.111         134.135         134.119         134.139         134.166         134.196         134.168         134.201         134.267    
          134.375         134.490         134.612         134.741         134.878         135.024         135.174         135.323         135.469         135.606    
          135.733         135.852         135.963         136.069         136.171         136.269         136.364         136.460         136.555         136.651    
          136.748         136.847         136.950         137.056         137.165         137.278         137.397         137.517         137.640         137.766    
          137.895         138.024         138.157         138.291         138.430         138.580         138.744         138.916         139.096         139.292    
          139.528         139.818         140.112         140.427         140.758         141.020         133.593         133.602         133.615         133.631    
          133.647         133.663         133.679         133.695         133.711         133.727         133.744         133.761         133.778         133.796    
          133.815         133.835         133.858         133.883         133.910         133.940         133.971         134.004         134.036         134.069    
          134.104         134.144         134.177         134.206         134.185         134.209         134.243         134.278         134.242         134.279    
          134.352         134.462         134.582         134.710         134.846         134.991         135.138         135.281         135.422         135.554    
          135.678         135.795         135.905         136.010         136.113         136.212         136.310         136.408         136.506         136.605    
          136.706         136.810         136.917         137.029         137.143         137.263         137.389         137.516         137.643         137.773    
          137.904         138.036         138.173         138.316         138.459         138.616         138.782         138.956         139.138         139.333    
          139.568         139.839         140.118         140.412         140.713         140.990         141.198         133.594         133.604         133.617    
          133.633         133.650         133.668         133.685         133.702         133.720         133.738         133.756         133.775         133.794    
          133.814         133.835         133.857         133.881         133.906         133.934         133.964         133.994         134.026         134.059    
          134.092         134.127         134.165         134.209         134.247         134.280         134.253         134.279         134.321         134.357    
          134.314         134.354         134.430         134.546         134.673         134.807         134.953         135.099         135.239         135.376    
          135.504         135.626         135.740         135.849         135.954         136.057         136.157         136.257         136.358         136.459    
          136.561         136.667         136.775         136.888         137.004         137.125         137.250         137.382         137.514         137.646    
          137.778         137.911         138.047         138.190         138.338         138.487         138.645         138.812         138.987         139.170    
          139.364         139.595         139.848         140.105         140.373         140.648         140.919         141.152         141.330         133.596    
          133.606         133.620         133.637         133.654         133.673         133.691         133.710         133.729         133.748         133.768    
          133.788         133.809         133.831         133.853         133.877         133.902         133.928         133.956         133.986         134.017    
          134.049         134.082         134.115         134.150         134.187         134.228         134.274         134.314         134.347         134.316    
          134.341         134.389         134.427         134.377         134.419         134.505         134.630         134.766         134.913         135.059    
          135.198         135.332         135.458         135.577         135.689         135.796         135.901         136.003         136.105         136.207    
          136.309         136.414         136.521         136.631         136.745         136.862         136.984         137.109         137.240         137.376    
          137.513         137.648         137.782         137.918         138.057         138.205         138.358         138.513         138.672         138.836    
          139.006         139.192         139.396         139.621         139.851         140.084         140.329         140.581         140.833         141.070    
          141.280         141.427         133.599         133.608         133.623         133.640         133.659         133.678         133.698         133.718    
          133.738         133.758         133.779         133.801         133.823         133.846         133.870         133.895         133.921         133.949    
          133.978         134.008         134.039         134.072         134.105         134.139         134.175         134.211         134.250         134.290    
          134.333         134.373         134.409         134.374         134.401         134.458         134.501         134.443         134.492         134.588    
          134.727         134.873         135.021         135.160         135.291         135.415         135.531         135.642         135.747         135.850    
          135.952         136.055         136.158         136.263         136.372         136.483         136.598         136.718         136.841         136.967    
          137.097         137.232         137.372         137.512         137.649         137.787         137.925         138.068         138.220         138.377    
          138.535         138.696         138.859         139.025         139.210         139.423         139.640         139.846         140.062         140.289    
          140.523         140.761         140.957         141.052         140.919         141.027         141.207         141.380         133.602         133.611    
          133.626         133.644         133.664         133.684         133.704         133.725         133.746         133.768         133.790         133.813    
          133.837         133.861         133.886         133.912         133.939         133.968         133.998         134.029         134.061         134.095    
          134.129         134.164         134.200         134.237         134.275         134.313         134.352         134.394         134.438         134.481    
          134.441         134.470         134.487         134.471         134.487         134.540         134.592         134.527         134.587         134.697    
          134.818         134.879         134.803         134.873         134.986         135.125         135.254         135.375         135.488         135.597    
          135.700         135.802         135.903         136.006         136.111         136.219         136.331         136.448         136.569         136.694    
          136.823         136.955         137.089         137.228         137.370         137.512         137.652         137.792         137.934         138.081    
          138.236         138.395         138.556         138.719         138.881         139.044         139.232         139.443         139.647         139.839    
          140.040         140.252         140.476         140.667         140.763         140.644         140.733         140.864         140.910         140.853    
          140.898         140.987         140.858         140.954         141.142         141.323         133.605         133.615         133.630         133.648    
          133.668         133.689         133.710         133.732         133.754         133.777         133.801         133.825         133.849         133.875    
          133.901         133.928         133.956         133.986         134.017         134.049         134.083         134.118         134.153         134.190    
          134.227         134.265         134.304         134.343         134.382         134.422         134.453         134.483         134.466         134.492    
          134.525         134.582         134.530         134.583         134.681         134.793         134.851         134.880         134.848         134.877    
          134.786         134.856         134.937         134.996         134.926         134.993         135.097         135.222         135.339         135.449    
          135.554         135.655         135.755         135.855         135.957         136.064         136.176         136.293         136.415         136.543    
          136.674         136.809         136.947         137.086         137.228         137.372         137.515         137.657         137.800         137.944    
          138.095         138.251         138.413         138.577         138.740         138.901         139.070         139.258         139.456         139.646    
          139.829         140.019         140.220         140.430         140.646         140.866         141.086         141.265         133.608         133.618    
          133.634         133.653         133.673         133.694         133.716         133.738         133.762         133.785         133.810         133.835    
          133.861         133.887         133.915         133.943         133.972         134.003         134.036         134.070         134.104         134.140    
          134.177         134.216         134.255         134.295         134.336         134.378         134.420         134.463         134.508         134.545    
          134.589         134.562         134.602         134.683         134.785         134.839         134.867         134.836         134.868         134.787    
          134.836         134.868         134.840         134.867         134.920         134.988         134.918         134.983         135.056         135.106    
          135.046         135.104         135.195         135.307         135.411         135.512         135.610         135.708         135.806         135.908    
          136.016         136.132         136.255         136.384         136.519         136.657         136.798         136.942         137.088         137.232    
          137.376         137.520         137.664         137.809         137.957         138.109         138.268         138.432         138.599         138.723    
          138.791         138.728         138.805         138.924         139.096         139.281         139.426         139.505         139.426         139.493    
          139.528         139.496         139.530         139.603         139.679         139.598         139.683         139.818         140.002         140.193    
          140.392         140.601         140.816         141.032         141.206         133.611         133.623         133.638         133.657         133.677    
          133.699         133.721         133.744         133.768         133.793         133.819         133.845         133.872         133.899         133.919    
          133.931         133.923         133.937         133.956         133.988         134.020         134.054         134.089         134.125         134.163    
          134.202         134.242         134.283         134.326         134.371         134.417         134.463         134.511         134.561         134.593    
          134.627         134.620         134.651         134.678         134.728         134.699         134.752         134.794         134.858         134.812    
          134.863         134.907         134.932         134.908         134.933         134.981         134.924         134.981         135.029         135.053    
          135.027         135.051         135.097         135.037         135.093         135.157         135.201         135.147         135.197         135.278    
          135.377         135.472         135.565         135.658         135.754         135.855         135.965         136.085         136.216         136.354    
          136.497         136.643         136.792         136.943         137.093         137.207         137.267         137.206         137.275         137.383    
          137.528         137.673         137.820         137.970         138.125         138.285         138.451         138.620         138.740         138.800    
          138.832         138.804         138.836         138.753         138.824         138.904         138.973         138.916         138.983         139.118    
          139.299         139.431         139.516         139.435         139.518         139.581         139.615         139.582         139.616         139.682    
          139.601         139.684         139.813         139.989         140.171         140.362         140.564         140.774         140.984         141.155    
          133.614         133.628         133.643         133.661         133.681         133.703         133.726         133.750         133.774         133.800    
          133.827         133.854         133.882         133.903         133.914         133.907         133.919         133.925         133.930         133.927    
          133.933         133.943         133.935         133.947         133.970         134.002         134.036         134.072         134.108         134.146    
          134.185         134.226         134.268         134.311         134.357         134.405         134.455         134.506         134.559         134.615    
          134.680         134.731         134.776         134.752         134.795         134.859         134.933         134.974         134.994         134.975    
          134.996         134.939         134.988         135.036         135.090         135.037         135.087         135.131         135.151         135.130    
          135.149         135.186         135.137         135.178         135.255         135.345         135.431         135.518         135.606         135.697    
          135.797         135.908         136.033         136.173         136.323         136.477         136.632         136.789         136.948         137.069    
          137.132         137.073         137.136         137.194         137.223         137.196         137.226         137.282         137.220         137.286    
          137.361         137.422         137.348         137.376         137.350         137.378         137.431         137.538         137.685         137.834    
          137.986         138.142         138.304         138.470         138.638         138.803         138.971         139.102         139.177         139.106    
          139.171         139.204         139.175         139.209         139.272         139.349         139.275         139.360         139.440         139.504    
          139.538         139.506         139.539         139.445         139.527         139.604         139.684         139.614         139.682         139.812    
          139.979         140.154         140.340         140.535         140.740         140.947         141.117         133.636         133.649         133.666    
          133.685         133.707         133.730         133.754         133.780         133.806         133.833         133.862         133.891         133.920    
          133.951         133.983         134.017         134.052         134.089         134.128         134.167         134.208         134.250         134.294    
          134.340         134.388         134.439         134.491         134.545         134.603         134.663         134.729         134.777         134.816    
          134.792         134.831         134.886         134.949         134.983         135.000         134.984         135.002         134.957         134.995    
          135.037         135.084         135.040         135.083         135.149         135.233         135.314         135.392         135.470         135.551    
          135.637         135.733         135.845         135.977         136.129         136.293         136.460         136.626         136.789         136.952    
          137.110         137.264         137.371         137.440         137.383         137.443         137.553         137.701         137.850         138.002    
          138.160         138.323         138.491         138.620         138.690         138.623         138.684         138.716         138.688         138.720    
          138.780         138.853         138.783         138.864         138.946         139.023         138.951         139.036         139.093         139.130    
          139.094         139.136         139.199         139.099         139.143         139.104         139.147         139.189         139.226         139.191    
          139.232         139.284         139.367         139.272         139.307         139.275         139.314         139.374         139.450         139.532    
          139.455         139.535         139.655         139.782         139.851         139.780         139.840         139.872         139.841         139.873    
          139.940         140.008         139.940         140.007         140.143         140.326         140.517         140.718         140.921         141.088    
          133.656         133.671         133.689         133.710         133.733         133.758         133.784         133.811         133.839         133.869    
          133.899         133.930         133.962         133.996         134.031         134.068         134.106         134.146         134.187         134.229    
          134.273         134.319         134.368         134.418         134.471         134.525         134.582         134.641         134.703         134.747    
          134.775         134.760         134.794         134.811         134.847         134.827         134.859         134.908         134.986         135.044    
          135.084         135.048         135.082         135.126         135.157         135.114         135.129         135.113         135.128         135.156    
          135.214         135.286         135.357         135.428         135.503         135.582         135.664         135.708         135.638         135.684    
          135.770         135.824         135.739         135.801         135.901         135.966         135.873         135.952         136.089         136.269    
          136.449         136.624         136.795         136.962         137.124         137.278         137.426         137.571         137.718         137.867    
          138.021         138.179         138.342         138.508         138.630         138.711         138.638         138.702         138.735         138.705    
          138.739         138.793         138.873         138.805         138.876         138.959         139.047         138.967         139.035         139.071    
          139.036         139.077         139.110         139.151         139.117         139.153         139.195         139.237         139.201         139.238    
          139.140         139.226         139.279         139.319         139.283         139.323         139.383         139.289         139.328         139.294    
          139.329         139.371         139.405         139.374         139.407         139.445         139.476         139.448         139.479         139.539    
          139.472         139.540         139.663         139.781         139.857         139.789         139.854         139.977         140.145         140.322    
          140.509         140.707         140.907         141.072         133.678         133.694         133.714         133.737         133.761         133.788    
          133.816         133.845         133.875         133.907         133.939         133.973         134.008         134.045         134.083         134.123    
          134.165         134.207         134.251         134.297         134.345         134.395         134.447         134.501         134.557         134.615    
          134.674         134.737         134.778         134.809         134.793         134.821         134.841         134.873         134.856         134.883    
          134.909         134.938         134.918         134.951         134.999         135.069         135.121         135.155         135.122         135.155    
          135.203         135.266         135.331         135.389         135.418         135.378         135.412         135.471         135.537         135.571    
          135.527         135.566         135.618         135.666         135.611         135.659         135.721         135.784         135.714         135.776    
          135.844         135.874         135.839         135.869         135.935         135.847         135.930         136.068         136.260         136.450    
          136.631         136.808         136.980         137.106         137.171         137.114         137.179         137.256         137.321         137.244    
          137.274         137.247         137.277         137.333         137.442         137.589         137.736         137.887         138.041         138.200    
          138.362         138.526         138.646         138.728         138.654         138.736         138.855         138.978         139.041         139.082    
          139.047         139.083         138.984         139.072         139.148         139.233         139.158         139.222         139.255         139.225    
          139.258         139.315         139.396         139.321         139.403         139.518         139.676         139.832         139.989         140.153    
          140.326         140.511         140.707         140.905         141.071         133.702         133.719         133.741         133.765         133.791    
          133.820         133.850         133.881         133.914         133.948         133.983         134.020         134.058         134.098         134.140    
          134.183         134.227         134.273         134.320         134.369         134.421         134.474         134.529         134.586         134.644    
          134.704         134.766         134.829         134.893         134.934         134.965         134.949         134.978         135.001         135.028    
          135.015         135.043         135.066         135.093         135.078         135.104         135.127         135.159         135.139         135.166    
          135.192         135.217         135.200         135.225         135.251         135.277         135.259         135.285         135.313         135.339    
          135.322         135.350         135.376         135.403         135.419         135.405         135.421         135.390         135.423         135.452    
          135.486         135.467         135.501         135.529         135.569         135.547         135.583         135.615         135.663         135.632    
          135.680         135.717         135.779         135.733         135.794         135.851         135.935         135.865         135.945         136.073    
          136.269         136.464         136.650         136.827         136.997         137.159         137.271         137.346         137.281         137.356    
          137.463         137.610         137.758         137.909         138.065         138.224         138.385         138.549         138.668         138.750    
          138.679         138.742         138.775         138.746         138.779         138.836         138.902         138.845         138.913         138.992    
          139.081         139.004         139.072         139.107         139.076         139.111         139.166         139.247         139.179         139.252    
          139.333         139.395         139.428         139.398         139.431         139.345         139.418         139.497         139.563         139.507    
          139.572         139.691         139.848         140.004         140.167         140.340         140.526         140.718         140.912         141.077    
          133.727         133.746         133.769         133.795         133.824         133.854         133.886         133.920         133.955         133.992    
          134.031         134.071         134.113         134.156         134.201         134.247         134.294         134.342         134.393         134.446    
          134.500         134.555         134.613         134.672         134.733         134.796         134.860         134.924         134.989         135.054    
          135.118         135.181         135.245         135.310         135.380         135.454         135.528         135.610         135.664         135.707    
          135.698         135.740         135.759         135.817         135.796         135.845         135.886         135.964         135.915         135.987    
          136.055         136.133         136.069         136.156         136.294         136.490         136.678         136.855         137.026         137.149    
          137.214         137.159         137.215         137.246         137.222         137.253         137.294         137.368         137.312         137.375    
          137.487         137.635         137.783         137.934         138.092         138.254         138.416         138.577         138.693         138.770    
          138.709         138.776         138.900         139.019         139.101         139.035         139.106         139.231         139.397         139.557    
          139.715         139.869         140.024         140.187         140.360         140.545         140.738         140.932         141.095         133.755    
          133.775         133.800         133.828         133.858         133.891         133.926         133.963         134.001         134.042         134.083    
          134.127         134.172         134.218         134.266         134.314         134.364         134.416         134.470         134.525         134.582    
          134.640         134.700         134.762         134.826         134.891         134.958         135.026         135.096         135.168         135.240    
          135.313         135.386         135.462         135.505         135.536         135.537         135.573         135.614         135.698         135.786    
          135.887         135.958         136.024         135.998         136.069         136.100         136.187         136.146         136.215         136.343    
          136.534         136.718         136.893         137.063         137.177         137.250         137.197         137.261         137.370         137.518    
          137.666         137.814         137.966         138.126         138.288         138.450         138.610         138.770         138.933         139.094    
          139.258         139.422         139.585         139.741         139.895         140.051         140.213         140.386         140.570         140.762    
          140.959         141.121         133.784         133.806         133.833         133.863         133.896         133.932         133.969         134.009    
          134.052         134.095         134.140         134.187         134.235         134.284         134.334         134.386         134.439         134.494    
          134.550         134.608         134.667         134.728         134.791         134.857         134.925         134.995         135.067         135.142    
          135.221         135.302         135.382         135.464         135.512         135.541         135.546         135.581         135.564         135.580    
          135.582         135.598         135.622         135.625         135.658         135.707         135.796         135.889         135.947         135.990    
          135.991         136.046         136.052         136.121         136.106         136.168         136.252         136.419         136.596         136.771    
          136.943         137.108         137.264         137.372         137.432         137.385         137.455         137.557         137.706         137.852    
          138.005         138.165         138.329         138.492         138.652         138.813         138.974         139.131         139.290         139.453    
          139.615         139.771         139.925         140.082         140.245         140.418         140.600         140.793         140.990         141.154    
          133.817         133.840         133.868         133.901         133.937         133.976         134.017         134.061         134.106         134.153    
          134.201         134.251         134.302         134.354         134.407         134.462         134.518         134.575         134.634         134.694    
          134.757         134.821         134.889         134.960         135.033         135.109         135.190         135.275         135.365         135.453    
          135.542         135.630         135.718         135.809         135.901         135.996         136.051         136.104         136.099         136.158    
          136.164         136.228         136.217         136.275         136.352         136.505         136.671         136.838         137.003         137.166    
          137.276         137.335         137.300         137.362         137.390         137.419         137.401         137.430         137.481         137.441    
          137.501         137.607         137.755         137.900         138.051         138.211         138.377         138.541         138.702         138.862    
          139.019         139.173         139.327         139.488         139.648         139.803         139.958         140.116         140.281         140.454    
          140.636         140.829         141.027         141.193         133.851         133.876         133.907         133.942         133.982         134.024    
          134.070         134.105         134.124         134.109         134.129         134.150         134.172         134.148         134.158         134.150    
          134.160         134.178         134.214         134.266         134.320         134.374         134.429         134.485         134.542         134.601    
          134.661         134.722         134.786         134.853         134.924         134.998         135.075         135.156         135.242         135.335    
          135.432         135.530         135.629         135.727         135.822         135.917         136.012         136.107         136.161         136.214    
          136.209         136.242         136.265         136.262         136.284         136.271         136.333         136.318         136.375         136.450    
          136.596         136.754         136.912         137.071         137.229         137.379         137.523         137.671         137.817         137.960    
          138.109         138.266         138.429         138.594         138.755         138.912         139.065         139.216         139.369         139.526    
          139.683         139.838         139.994         140.154         140.321         140.495         140.676         140.869         141.067         141.232    
          133.887         133.915         133.949         133.988         134.031         134.077         134.126         134.161         134.185         134.167    
          134.188         134.227         134.281         134.336         134.392         134.449         134.507         134.566         134.627         134.688    
          134.751         134.817         134.887         134.961         135.039         135.121         135.208         135.301         135.402         135.509    
          135.619         135.727         135.830         135.931         135.984         136.022         136.036         136.083         136.079         136.123    
          136.114         136.132         136.140         136.157         136.177         136.219         136.267         136.313         136.316         136.361    
          136.368         136.429         136.416         136.470         136.546         136.690         136.839         136.994         137.149         137.303    
          137.453         137.598         137.744         137.888         138.028         138.175         138.325         138.484         138.649         138.807    
          138.960         139.111         139.262         139.413         139.568         139.722         139.876         140.035         140.197         140.363    
          140.538         140.719         140.911         141.110         141.275         133.928         133.959         133.996         134.039         134.085    
          134.135         134.186         134.239         134.295         134.352         134.410         134.470         134.530         134.591         134.653    
          134.717         134.782         134.851         134.924         135.002         135.084         135.173         135.268         135.370         135.480    
          135.599         135.718         135.834         135.946         136.053         136.157         136.202         136.246         136.259         136.295    
          136.337         136.422         136.472         136.524         136.520         136.575         136.592         136.650         136.639         136.678    
          136.704         136.698         136.724         136.727         136.791         136.768         136.834         136.926         137.028         137.092    
          137.058         137.131         137.228         137.382         137.534         137.631         137.691         137.661         137.735         137.773    
          137.836         137.809         137.876         137.962         138.100         138.197         138.256         138.219         138.289         138.336    
          138.401         138.340         138.369         138.351         138.380         138.430         138.540         138.657         138.723         138.673    
          138.749         138.856         139.007         139.158         139.309         139.459         139.611         139.764         139.920         140.080    
          140.242         140.408         140.582         140.764         140.957         141.155         141.318         133.973         134.008         134.049    
          134.095         134.144         134.196         134.250         134.307         134.366         134.427         134.489         134.552         134.616    
          134.681         134.747         134.816         134.888         134.964         135.047         135.135         135.232         135.336         135.449    
          135.572         135.704         135.835         135.964         136.083         136.192         136.292         136.377         136.418         136.452    
          136.463         136.500         136.536         136.582         136.631         136.630         136.661         136.683         136.682         136.703    
          136.688         136.750         136.738         136.776         136.801         136.795         136.821         136.815         136.886         136.863    
          136.933         136.963         137.025         137.004         137.073         137.077         137.108         137.096         137.126         137.176    
          137.149         137.209         137.312         137.468         137.569         137.629         137.602         137.675         137.681         137.711    
          137.699         137.728         137.777         137.748         137.821         137.851         137.897         137.926         137.913         137.941    
          137.890         137.957         137.990         138.047         138.024         138.086         138.121         138.177         138.151         138.215    
          138.248         138.318         138.282         138.350         138.389         138.465         138.420         138.493         138.596         138.701    
          138.757         138.788         138.768         138.799         138.723         138.802         138.858         138.923         138.878         138.948    
          139.052         139.204         139.314         139.379         139.329         139.407         139.464         139.527         139.490         139.553    
          139.614         139.680         139.641         139.707         139.769         139.837         139.797         139.866         139.927         139.992    
          139.955         140.020         140.082         140.150         140.110         140.177         140.242         140.314         140.265         140.344    
          140.407         140.481         140.429         140.511         140.578         140.655         140.598         140.682         140.809         141.002    
          141.201         141.364         134.027         134.063         134.106         134.154         134.206         134.261         134.319         134.380    
          134.443         134.508         134.574         134.641         134.710         134.779         134.852         134.927         135.009         135.097    
          135.193         135.300         135.415         135.543         135.683         135.828         135.972         136.107         136.225         136.331    
          136.423         136.460         136.485         136.511         136.541         136.502         136.517         136.525         136.540         136.561    
          136.578         136.607         136.644         136.687         136.732         136.730         136.781         136.787         136.846         136.835    
          136.895         136.912         136.956         136.983         136.975         137.002         136.959         137.025         137.048         137.121    
          137.096         137.154         137.251         137.404         137.555         137.649         137.720         137.686         137.761         137.793    
          137.840         137.868         137.855         137.883         137.831         137.898         137.928         137.994         137.965         138.008    
          138.033         138.022         138.048         138.058         138.101         138.125         138.113         138.138         138.068         138.094    
          138.083         138.108         138.151         138.184         138.228         138.254         138.240         138.266         138.220         138.276    
          138.314         138.362         138.389         138.374         138.401         138.325         138.353         138.339         138.366         138.412    
          138.452         138.526         138.483         138.553         138.651         138.752         138.826         138.772         138.849         138.902    
          138.975         138.929         138.994         139.056         139.119         139.080         139.144         139.205         139.270         139.231    
          139.297         139.353         139.431         139.383         139.449         139.560         139.718         139.876         140.032         140.189    
          140.297         140.373         140.327         140.397         140.456         140.538         140.488         140.562         140.626         140.711    
          140.656         140.732         140.809         140.887         140.827         140.914         141.048         141.246         141.411         134.083    
          134.121         134.166         134.217         134.272         134.331         134.393         134.458         134.526         134.596         134.667    
          134.740         134.814         134.891         134.973         135.060         135.156         135.262         135.379         135.509         135.654    
          135.809         135.964         136.111         136.245         136.362         136.460         136.542         136.609         136.672         136.707    
          136.737         136.742         136.764         136.781         136.782         136.801         136.779         136.809         136.829         136.827    
          136.847         136.824         136.873         136.881         136.942         136.928         136.988         137.005         137.074         137.052    
          137.114         137.197         137.346         137.494         137.641         137.734         137.779         137.806         137.792         137.820    
          137.770         137.830         137.867         137.933         137.905         137.962         137.979         138.003         137.992         138.016    
          138.058         138.030         138.092         138.120         138.185         138.152         138.212         138.295         138.380         138.446    
          138.406         138.476         138.516         138.588         138.546         138.617         138.664         138.721         138.692         138.749    
          138.797         138.871         138.828         138.890         138.999         139.155         139.311         139.469         139.626         139.786    
          139.947         140.103         140.255         140.409         140.568         140.733         140.856         140.942         140.880         140.957    
          141.043         141.125         141.058         141.150         141.289         141.449         134.142         134.182         134.229         134.283    
          134.342         134.406         134.473         134.544         134.618         134.695         134.772         134.852         134.935         135.023    
          135.118         135.224         135.340         135.471         135.614         135.773         135.937         136.097         136.245         136.374    
          136.485         136.576         136.651         136.714         136.738         136.758         136.777         136.788         136.799         136.807    
          136.818         136.787         136.806         136.825         136.823         136.842         136.830         136.846         136.865         136.865    
          136.882         136.868         136.899         136.919         136.916         136.937         136.910         136.963         136.974         137.035    
          137.025         137.078         137.076         137.102         137.095         137.120         137.162         137.145         137.197         137.286    
          137.430         137.574         137.718         137.855         137.987         138.069         138.106         138.129         138.118         138.141    
          138.099         138.151         138.183         138.245         138.217         138.268         138.355         138.440         138.507         138.468    
          138.540         138.577         138.647         138.613         138.670         138.766         138.913         139.070         139.229         139.387    
          139.546         139.705         139.865         140.021         140.172         140.322         140.472         140.623         140.779         140.949    
          141.081         141.174         141.098         141.180         141.280         141.360         141.289         141.369         141.448         141.456    
          134.203         134.245         134.296         134.354         134.418         134.487         134.562         134.641         134.723         134.808    
          134.895         134.985         135.081         135.187         135.302         135.430         135.573         135.728         135.897         136.067    
          136.231         136.377         136.503         136.609         136.696         136.766         136.821         136.832         136.852         136.880    
          136.904         136.878         136.909         136.933         136.959         136.957         137.013         137.007         137.056         137.120    
          137.240         137.372         137.513         137.654         137.792         137.926         138.055         138.174         138.294         138.422    
          138.507         138.576         138.536         138.605         138.694         138.841         138.994         139.153         139.312         139.470    
          139.631         139.794         139.954         140.106         140.253         140.398         140.538         140.677         140.822         140.977    
          141.147         141.328         141.478         134.267         134.312         134.367         134.430         134.502         134.580         134.665    
          134.755         134.847         134.942         135.043         135.150         135.267         135.396         135.537         135.693         135.863    
          136.042         136.216         136.379         136.519         136.639         136.739         136.822         136.885         136.933         136.980    
          137.033         137.068         137.114         137.114         137.159         137.217         137.334         137.462         137.596         137.731    
          137.866         137.998         138.123         138.241         138.364         138.451         138.504         138.478         138.547         138.575    
          138.645         138.618         138.675         138.773         138.927         139.086         139.250         139.412         139.573         139.739    
          139.906         140.064         140.213         140.352         140.483         140.607         140.729         140.855         140.990         141.141    
          141.317         141.467         134.335         134.383         134.445         134.517         134.600         134.692         134.789         134.891    
          134.998         135.111         135.233         135.365         135.509         135.666         135.840         136.023         136.206         136.381    
          136.540         136.674         136.783         136.875         136.951         137.008         137.055         137.102         137.154         137.180    
          137.219         137.232         137.271         137.272         137.317         137.321         137.366         137.430         137.552         137.679    
          137.810         137.940         138.027         138.080         138.054         138.120         138.150         138.199         138.186         138.237    
          138.268         138.319         138.306         138.358         138.390         138.445         138.431         138.488         138.518         138.589    
          138.565         138.622         138.718         138.872         139.030         139.195         139.365         139.535         139.703         139.876    
          140.047         140.206         140.348         140.471         140.583         140.684         140.780         140.879         140.983         141.105    
          141.299         141.450         134.407         134.463         134.536         134.622         134.721         134.828         134.943         135.064    
          135.194         135.333         135.485         135.648         135.824         136.006         136.194         136.378         136.551         136.704    
          136.833         136.940         137.024         137.092         137.145         137.189         137.231         137.279         137.342         137.381    
          137.423         137.430         137.473         137.480         137.529         137.527         137.576         137.642         137.765         137.846    
          137.898         137.878         137.944         137.969         138.021         138.012         138.065         138.091         138.158         138.135    
          138.189         138.270         138.396         138.529         138.674         138.827         138.984         139.148         139.322         139.505    
          139.690         139.871         140.055         140.228         140.378         140.506         140.609         140.692         140.767         140.828    
          140.898         140.957         140.997         134.491         134.561         134.649         134.754         134.873         135.003         135.143    
          135.293         135.455         135.629         135.810         135.996         136.185         136.377         136.562         136.732         136.879    
          137.002         137.104         137.187         137.252         137.298         137.335         137.370         137.413         137.470         137.546    
          137.589         137.634         137.641         137.689         137.692         137.738         137.747         137.795         137.806         137.857    
          137.862         137.915         137.927         137.994         137.983         138.036         138.112         138.239         138.370         138.500    
          138.641         138.790         138.945         139.106         139.282         139.479         139.683         139.886         140.086         140.270    
          140.435         140.579         140.695         140.774         140.818         140.872         140.874         140.928         134.597         134.684    
          134.794         134.925         135.074         135.238         135.413         135.601         135.794         135.987         136.182         136.380    
          136.576         136.762         136.929         137.071         137.189         137.286         137.365         137.427         137.471         137.503    
          137.532         137.570         137.621         137.694         137.774         137.879         137.998         138.119         138.242         138.369    
          138.496         138.628         138.766         138.915         139.074         139.245         139.442         139.668         139.902         140.122    
          140.324         140.509         140.673         140.820         140.932         140.988         140.944         141.040         134.732         134.842    
          134.986         135.159         135.351         135.555         135.765         135.972         136.178         136.386         136.592         136.794    
          136.982         137.146         137.282         137.393         137.485         137.560         137.621         137.668         137.703         137.732    
          137.764         137.813         137.890         137.973         138.078         138.191         138.304         138.421         138.540         138.656    
          138.778         138.910         139.061         139.228         139.411         139.622         139.883         140.134         140.371         140.586    
          140.774         140.938         141.113         141.247         141.319         134.905         135.062         135.263         135.488         135.719    
          135.942         136.163         136.384         136.605         136.822         137.032         137.221         137.381         137.511         137.613    
          137.700         137.773         137.844         137.903         137.946         137.981         138.023         138.101         138.205         138.304    
          138.407         138.500         138.592         138.687         138.776         138.863         138.967         139.085         139.236         139.406    
          139.594         139.795         140.086         140.375         140.645         140.883         141.075         141.209         135.165         135.392    
          135.651         135.897         136.131         136.365         136.602         136.838         137.069         137.290         137.482         137.638    
          137.758         137.848         137.932         137.995         138.100         138.197         138.251         138.288         138.350         138.481    
          138.653         138.778         138.872         138.946         138.995         139.046         139.079         139.107         139.174         139.269    
          139.414         139.585         139.751         139.862         135.561         135.844         136.091         136.329         136.574         136.829    
          137.085         137.335         137.570         137.767         137.923         138.028         138.094         138.188         138.186         138.400    
          136.071         136.300         136.527         136.782         137.060         137.343         137.625         137.883         138.097         138.255    
          138.339         138.322         138.549         136.510         136.698         136.970         137.292         137.618         137.959         138.254    
          138.495         138.666         138.761    
1
  HEAD IN LAYER   3 AT END OF TIME STEP  48 IN STRESS PERIOD    2
  ---------------------------------------------------------------------------

                1               2               3               4               5               6               7               8               9              10
               11              12              13              14              15              16              17              18              19              20
               21              22              23              24              25              26              27              28              29              30
               31              32              33              34              35              36              37              38              39              40
               41              42              43              44              45              46              47              48              49              50
               51              52              53              54              55              56              57              58              59              60
               61              62              63              64              65              66              67              68              69              70
               71              72              73              74              75              76              77              78              79              80
               81              82              83              84              85              86              87              88              89              90
               91              92              93              94              95              96              97              98              99             100
              101             102             103             104             105             106             107             108             109             110
              111             112             113             114             115             116             117             118             119             120
              121             122             123             124             125             126             127             128             129             130
              131             132             133             134             135             136             137             138             139             140
              141             142             143             144             145             146             147             148             149             150
              151             152             153             154             155             156             157             158             159             160
              161             162             163             164             165             166             167             168             169             170
              171             172             173             174             175             176             177             178             179             180
              181             182             183             184             185             186             187             188             189             190
              191             192             193             194             195             196             197             198             199             200
              201             202             203             204             205             206             207             208             209             210
              211             212             213             214             215             216             217             218             219             220
              221             222             223             224             225             226             227             228             229             230
              231             232             233             234             235             236             237             238             239             240
              241             242             243             244             245             246             247             248             249             250
              251             252             253             254             255             256             257             258             259             260
              261             262             263             264             265             266             267             268             269             270
              271             272             273             274             275             276             277             278             279             280
              281             282             283             284             285             286             287             288             289             290
              291             292             293             294             295             296             297             298             299             300
              301             302             303             304             305             306             307             308             309             310
              311             312             313             314             315             316             317             318             319             320
              321             322             323             324             325             326             327             328             329             330
              331             332             333             334             335             336             337             338             339             340
              341             342             343             344             345             346             347             348             349             350
              351             352             353             354             355             356             357             358             359             360
              361             362             363             364             365             366             367             368             369             370
              371             372             373             374             375             376             377             378             379             380
              381             382             383             384             385             386             387             388             389             390
              391             392             393             394             395             396             397             398             399             400
              401             402             403             404             405             406             407             408             409             410
              411             412             413             414             415             416             417             418             419             420
              421             422             423             424             425             426             427             428             429             430
              431             432             433             434             435             436             437             438             439             440
              441             442             443             444             445             446             447             448             449             450
              451             452             453             454             455             456             457             458             459             460
              461             462             463             464             465             466             467             468             469             470
              471             472             473             474             475             476             477             478             479             480
              481             482             483             484             485             486             487             488             489             490
              491             492             493             494             495             496             497             498             499             500
              501             502             503             504             505             506             507             508             509             510
              511             512             513             514             515             516             517             518             519             520
              521             522             523             524             525             526             527             528             529             530
              531             532             533             534             535             536             537             538             539             540
              541             542             543             544             545             546             547             548             549             550
              551             552             553             554             555             556             557             558             559             560
              561             562             563             564             565             566             567             568             569             570
              571             572             573             574             575             576             577             578             579             580
              581             582             583             584             585             586             587             588             589             590
              591             592             593             594             595             596             597             598             599             600
              601             602             603             604             605             606             607             608             609             610
              611             612             613             614             615             616             617             618             619             620
              621             622             623             624             625             626             627             628             629             630
              631             632             633             634             635             636             637             638             639             640
              641             642             643             644             645             646             647             648             649             650
              651             652             653             654             655             656             657             658             659             660
              661             662             663             664             665             666             667             668             669             670
              671             672             673             674             675             676             677             678             679             680
              681             682             683             684             685             686             687             688             689             690
              691             692             693             694             695             696             697             698             699             700
              701             702             703             704             705             706             707             708             709             710
              711             712             713             714             715             716             717             718             719             720
              721             722             723             724             725             726             727             728             729             730
              731             732             733             734             735             736             737             738             739             740
              741             742             743             744             745             746             747             748             749             750
              751             752             753             754             755             756             757             758             759             760
              761             762             763             764             765             766             767             768             769             770
              771             772             773             774             775             776             777             778             779             780
              781             782             783             784             785             786             787             788             789             790
              791             792             793             794             795             796             797             798             799             800
              801             802             803             804             805             806             807             808             809             810
              811             812             813             814             815             816             817             818             819             820
              821             822             823             824             825             826             827             828             829             830
              831             832             833             834             835             836             837             838             839             840
              841             842             843             844             845             846             847             848             849             850
              851             852             853             854             855             856             857             858             859             860
              861             862             863             864             865             866             867             868             869             870
              871             872             873             874             875             876             877             878             879             880
              881             882             883             884             885             886             887             888             889             890
              891             892             893             894             895             896             897             898             899             900
              901             902             903             904             905             906             907             908             909             910
              911             912             913             914             915             916             917             918             919             920
              921             922             923             924             925             926             927             928             929             930
              931             932             933             934             935             936             937             938             939             940
              941             942             943             944             945             946             947             948             949             950
              951             952             953             954             955             956             957             958             959             960
              961             962             963             964             965             966             967             968             969             970
              971             972             973             974             975             976             977             978             979             980
              981             982             983             984             985             986             987             988             989             990
              991             992             993             994             995             996             997             998             999            1000
             1001            1002            1003            1004            1005            1006            1007            1008            1009            1010
             1011            1012            1013            1014            1015            1016            1017            1018            1019            1020
             1021            1022            1023            1024            1025            1026            1027            1028            1029            1030
             1031            1032            1033            1034            1035            1036            1037            1038            1039            1040
             1041            1042            1043            1044            1045            1046            1047            1048            1049            1050
             1051            1052            1053            1054            1055            1056            1057            1058            1059            1060
             1061            1062            1063            1064            1065            1066            1067            1068            1069            1070
             1071            1072            1073            1074            1075            1076            1077            1078            1079            1080
             1081            1082            1083            1084            1085            1086            1087            1088            1089            1090
             1091            1092            1093            1094            1095            1096            1097            1098            1099            1100
             1101            1102            1103            1104            1105            1106            1107            1108            1109            1110
             1111            1112            1113            1114            1115            1116            1117            1118            1119            1120
             1121            1122            1123            1124            1125            1126            1127            1128            1129            1130
             1131            1132            1133            1134            1135            1136            1137            1138            1139            1140
             1141            1142            1143            1144            1145            1146            1147            1148            1149            1150
             1151            1152            1153            1154            1155            1156            1157            1158            1159            1160
             1161            1162            1163            1164            1165            1166            1167            1168            1169            1170
             1171            1172            1173            1174            1175            1176            1177            1178            1179            1180
             1181            1182            1183            1184            1185            1186            1187            1188            1189            1190
             1191            1192            1193            1194            1195            1196            1197            1198            1199            1200
             1201            1202            1203            1204            1205            1206            1207            1208            1209            1210
             1211            1212            1213            1214            1215            1216            1217            1218            1219            1220
             1221            1222            1223            1224            1225            1226            1227            1228            1229            1230
             1231            1232            1233            1234            1235            1236            1237            1238            1239            1240
             1241            1242            1243            1244            1245            1246            1247            1248            1249            1250
             1251            1252            1253            1254            1255            1256            1257            1258            1259            1260
             1261            1262            1263            1264            1265            1266            1267            1268            1269            1270
             1271            1272            1273            1274            1275            1276            1277            1278            1279            1280
             1281            1282            1283            1284            1285            1286            1287            1288            1289            1290
             1291            1292            1293            1294            1295            1296            1297            1298            1299            1300
             1301            1302            1303            1304            1305            1306            1307            1308            1309            1310
             1311            1312            1313            1314            1315            1316            1317            1318            1319            1320
             1321            1322            1323            1324            1325            1326            1327            1328            1329            1330
             1331            1332            1333            1334            1335            1336            1337            1338            1339            1340
             1341            1342            1343            1344            1345            1346            1347            1348            1349            1350
             1351            1352            1353            1354            1355            1356            1357            1358            1359            1360
             1361            1362            1363            1364            1365            1366            1367            1368            1369            1370
             1371            1372            1373            1374            1375            1376            1377            1378            1379            1380
             1381            1382            1383            1384            1385            1386            1387            1388            1389            1390
             1391            1392            1393            1394            1395            1396            1397            1398            1399            1400
             1401            1402            1403            1404            1405            1406            1407            1408            1409            1410
             1411            1412            1413            1414            1415            1416            1417            1418            1419            1420
             1421            1422            1423            1424            1425            1426            1427            1428            1429            1430
             1431            1432            1433            1434            1435            1436            1437            1438            1439            1440
             1441            1442            1443            1444            1445            1446            1447            1448            1449            1450
             1451            1452            1453            1454            1455            1456            1457            1458            1459            1460
             1461            1462            1463            1464            1465            1466            1467            1468            1469            1470
             1471            1472            1473            1474            1475            1476            1477            1478            1479            1480
             1481            1482            1483            1484            1485            1486            1487            1488            1489            1490
             1491            1492            1493            1494            1495            1496            1497            1498            1499            1500
             1501            1502            1503            1504            1505            1506            1507            1508            1509            1510
             1511            1512            1513            1514            1515            1516            1517            1518            1519            1520
             1521            1522            1523            1524            1525            1526            1527            1528            1529            1530
             1531            1532            1533            1534            1535            1536            1537            1538            1539            1540
             1541            1542            1543            1544            1545            1546            1547            1548            1549            1550
             1551            1552            1553            1554            1555            1556            1557            1558            1559            1560
             1561            1562            1563            1564            1565            1566            1567            1568            1569            1570
             1571            1572            1573            1574            1575            1576            1577            1578            1579            1580
             1581            1582            1583            1584            1585            1586            1587            1588            1589            1590
             1591            1592            1593            1594            1595            1596            1597            1598            1599            1600
             1601            1602            1603            1604            1605            1606            1607            1608            1609            1610
             1611            1612            1613            1614            1615            1616            1617            1618            1619            1620
             1621            1622            1623            1624            1625            1626            1627            1628            1629            1630
             1631            1632            1633            1634            1635            1636            1637            1638            1639            1640
             1641            1642            1643            1644            1645            1646            1647            1648            1649            1650
             1651            1652            1653            1654            1655            1656            1657            1658            1659            1660
             1661            1662            1663            1664            1665            1666            1667            1668            1669            1670
             1671            1672            1673            1674            1675            1676            1677            1678            1679            1680
             1681            1682            1683            1684            1685            1686            1687            1688            1689            1690
             1691            1692            1693            1694            1695            1696            1697            1698            1699            1700
             1701            1702            1703            1704            1705            1706            1707            1708            1709            1710
             1711            1712            1713            1714            1715            1716            1717            1718            1719            1720
             1721            1722            1723            1724            1725            1726            1727            1728            1729            1730
             1731            1732            1733            1734            1735            1736            1737            1738            1739            1740
             1741            1742            1743            1744            1745            1746            1747            1748            1749            1750
             1751            1752            1753            1754            1755            1756            1757            1758            1759            1760
             1761            1762            1763            1764            1765            1766            1767            1768            1769            1770
             1771            1772            1773            1774            1775            1776            1777            1778            1779            1780
             1781            1782            1783            1784            1785            1786            1787            1788            1789            1790
             1791            1792            1793            1794            1795            1796            1797            1798            1799            1800
             1801            1802            1803            1804            1805            1806            1807            1808            1809            1810
             1811            1812            1813            1814            1815            1816            1817            1818            1819            1820
             1821            1822            1823            1824            1825            1826            1827            1828            1829            1830
             1831            1832            1833            1834            1835            1836            1837            1838            1839            1840
             1841            1842            1843            1844            1845            1846            1847            1848            1849            1850
             1851            1852            1853            1854            1855            1856            1857            1858            1859            1860
             1861            1862            1863            1864            1865            1866            1867            1868            1869            1870
             1871            1872            1873            1874            1875            1876            1877            1878            1879            1880
             1881            1882            1883            1884            1885            1886            1887            1888            1889            1890
             1891            1892            1893            1894            1895            1896            1897            1898            1899            1900
             1901            1902            1903            1904            1905            1906            1907            1908            1909            1910
             1911            1912            1913            1914            1915            1916            1917            1918            1919            1920
             1921            1922            1923            1924            1925            1926            1927            1928            1929            1930
             1931            1932            1933            1934            1935            1936            1937            1938            1939            1940
             1941            1942            1943            1944            1945            1946            1947            1948            1949            1950
             1951            1952            1953            1954            1955            1956            1957            1958            1959            1960
             1961            1962            1963            1964            1965            1966            1967            1968            1969            1970
             1971            1972            1973            1974            1975            1976            1977            1978            1979            1980
             1981            1982            1983            1984            1985            1986            1987            1988            1989            1990
             1991            1992            1993            1994            1995            1996            1997            1998            1999            2000
             2001            2002            2003            2004            2005            2006            2007            2008            2009            2010
             2011            2012            2013            2014            2015            2016            2017            2018            2019            2020
             2021            2022            2023            2024            2025            2026            2027            2028            2029            2030
             2031            2032            2033            2034            2035            2036            2037            2038            2039            2040
             2041            2042            2043            2044            2045            2046            2047            2048            2049            2050
             2051            2052            2053            2054            2055            2056            2057            2058            2059            2060
             2061            2062            2063            2064            2065            2066            2067            2068            2069            2070
             2071            2072            2073            2074            2075            2076            2077            2078            2079            2080
             2081            2082            2083            2084            2085            2086            2087            2088            2089            2090
             2091            2092            2093            2094            2095            2096            2097            2098            2099            2100
             2101            2102            2103            2104            2105            2106            2107            2108            2109            2110
             2111            2112            2113            2114            2115            2116            2117            2118            2119            2120
             2121            2122            2123            2124            2125            2126            2127            2128            2129            2130
             2131            2132            2133            2134            2135            2136            2137            2138            2139            2140
             2141            2142            2143            2144            2145            2146            2147            2148            2149            2150
             2151            2152            2153            2154            2155            2156            2157            2158            2159            2160
             2161            2162            2163            2164            2165            2166            2167            2168            2169            2170
             2171            2172            2173            2174            2175            2176            2177            2178            2179            2180
             2181            2182            2183            2184            2185            2186            2187            2188            2189            2190
             2191            2192            2193            2194            2195            2196            2197            2198            2199            2200
             2201            2202            2203            2204            2205            2206            2207            2208            2209            2210
             2211            2212            2213            2214            2215            2216            2217            2218            2219            2220
             2221            2222            2223            2224            2225            2226            2227            2228            2229            2230
             2231            2232            2233            2234            2235            2236            2237            2238            2239            2240
             2241            2242            2243            2244            2245            2246            2247            2248            2249            2250
             2251            2252            2253            2254            2255            2256            2257            2258            2259            2260
             2261            2262            2263            2264            2265            2266            2267            2268            2269            2270
             2271            2272            2273            2274            2275            2276            2277            2278            2279            2280
             2281            2282            2283            2284            2285            2286            2287            2288            2289            2290
             2291            2292            2293            2294            2295            2296            2297            2298            2299            2300
             2301            2302            2303            2304            2305            2306            2307            2308            2309            2310
             2311            2312            2313            2314            2315            2316            2317            2318            2319            2320
             2321            2322            2323            2324            2325            2326            2327            2328            2329            2330
             2331            2332            2333            2334            2335            2336            2337            2338            2339            2340
             2341            2342            2343            2344            2345            2346            2347            2348            2349            2350
             2351            2352            2353            2354            2355            2356            2357            2358            2359            2360
             2361            2362            2363            2364            2365            2366            2367            2368            2369            2370
             2371            2372            2373            2374            2375            2376            2377            2378            2379            2380
             2381            2382            2383            2384            2385            2386            2387            2388            2389            2390
             2391            2392            2393            2394            2395            2396            2397            2398            2399            2400
             2401            2402            2403            2404            2405            2406            2407            2408            2409            2410
             2411            2412            2413            2414            2415            2416            2417            2418            2419            2420
             2421            2422            2423            2424            2425            2426            2427            2428            2429            2430
             2431            2432            2433            2434            2435            2436            2437            2438            2439            2440
             2441            2442            2443            2444            2445            2446            2447            2448            2449            2450
             2451            2452            2453            2454            2455            2456            2457            2458            2459            2460
             2461            2462            2463            2464            2465            2466            2467            2468            2469            2470
             2471            2472            2473            2474            2475            2476            2477            2478            2479            2480
             2481            2482            2483            2484            2485            2486            2487            2488            2489            2490
             2491            2492            2493            2494            2495            2496            2497            2498            2499            2500
             2501            2502            2503            2504            2505            2506            2507            2508            2509            2510
             2511            2512            2513            2514            2515            2516            2517            2518            2519            2520
             2521            2522            2523            2524            2525            2526            2527            2528            2529            2530
             2531            2532            2533            2534            2535            2536            2537            2538            2539            2540
             2541            2542            2543            2544            2545            2546            2547            2548            2549            2550
             2551            2552            2553            2554            2555            2556            2557            2558            2559            2560
             2561            2562            2563            2564            2565            2566            2567            2568            2569            2570
             2571            2572            2573            2574            2575            2576            2577            2578            2579            2580
             2581            2582            2583            2584            2585            2586            2587            2588            2589            2590
             2591            2592            2593            2594            2595            2596            2597            2598            2599            2600
             2601            2602            2603            2604            2605            2606            2607            2608            2609            2610
             2611            2612            2613            2614            2615            2616            2617            2618            2619            2620
             2621            2622            2623            2624            2625            2626            2627            2628            2629            2630
             2631            2632            2633            2634            2635            2636            2637            2638            2639            2640
             2641            2642            2643            2644            2645            2646            2647            2648            2649            2650
             2651            2652            2653            2654            2655            2656            2657            2658            2659            2660
             2661            2662            2663            2664            2665            2666            2667            2668            2669            2670
             2671            2672            2673            2674            2675            2676            2677            2678            2679            2680
             2681            2682            2683            2684            2685            2686            2687            2688            2689            2690
             2691            2692            2693            2694            2695            2696            2697            2698            2699            2700
             2701            2702            2703            2704            2705            2706            2707            2708            2709            2710
             2711            2712            2713            2714            2715            2716            2717            2718            2719            2720
             2721            2722            2723            2724            2725            2726            2727            2728            2729            2730
             2731            2732            2733            2734            2735            2736            2737            2738            2739            2740
             2741            2742            2743            2744            2745            2746            2747            2748            2749            2750
             2751            2752            2753            2754            2755            2756            2757            2758            2759            2760
             2761            2762            2763            2764            2765            2766            2767            2768            2769            2770
             2771            2772            2773            2774            2775            2776            2777            2778            2779            2780
             2781            2782            2783            2784            2785            2786            2787            2788            2789            2790
             2791            2792            2793            2794            2795            2796            2797            2798            2799            2800
             2801            2802            2803            2804            2805            2806            2807            2808            2809            2810
             2811            2812            2813            2814            2815            2816            2817            2818            2819            2820
             2821            2822            2823            2824            2825            2826            2827            2828            2829            2830
             2831            2832            2833            2834            2835            2836            2837            2838            2839            2840
             2841            2842            2843            2844            2845            2846            2847            2848            2849            2850
             2851            2852            2853            2854            2855            2856            2857            2858            2859            2860
             2861            2862            2863            2864            2865            2866            2867            2868            2869            2870
             2871            2872            2873            2874            2875            2876            2877            2878            2879            2880
             2881            2882            2883            2884            2885            2886            2887            2888            2889            2890
             2891            2892            2893            2894            2895            2896            2897            2898            2899            2900
             2901            2902            2903            2904            2905            2906            2907            2908            2909            2910
             2911            2912            2913            2914            2915            2916            2917            2918            2919            2920
             2921            2922            2923            2924            2925            2926            2927            2928            2929            2930
             2931            2932            2933            2934            2935            2936            2937            2938            2939            2940
             2941            2942            2943            2944            2945            2946            2947            2948            2949            2950
             2951            2952            2953            2954            2955            2956            2957            2958            2959            2960
             2961            2962            2963            2964            2965            2966            2967            2968            2969            2970
             2971            2972            2973            2974            2975            2976            2977            2978            2979            2980
             2981            2982            2983            2984            2985            2986            2987            2988            2989            2990
             2991            2992            2993            2994            2995            2996            2997            2998            2999            3000
             3001            3002            3003            3004            3005            3006            3007            3008            3009            3010
             3011            3012            3013            3014            3015            3016            3017            3018            3019            3020
             3021            3022            3023            3024            3025            3026            3027            3028            3029            3030
             3031            3032            3033            3034            3035            3036            3037            3038            3039            3040
             3041            3042            3043            3044            3045            3046            3047            3048            3049            3050
             3051            3052            3053            3054            3055            3056            3057            3058            3059            3060
             3061            3062            3063            3064            3065            3066            3067            3068            3069            3070
             3071            3072            3073            3074            3075            3076            3077            3078            3079            3080
             3081            3082            3083            3084            3085            3086            3087            3088            3089            3090
             3091            3092            3093            3094            3095            3096            3097            3098            3099            3100
             3101            3102            3103            3104            3105            3106            3107            3108            3109            3110
             3111            3112            3113            3114            3115            3116            3117            3118            3119            3120
             3121            3122            3123            3124            3125            3126            3127            3128            3129            3130
             3131            3132            3133            3134            3135            3136            3137            3138            3139            3140
             3141            3142            3143            3144            3145            3146            3147            3148            3149            3150
             3151            3152            3153            3154            3155            3156            3157            3158            3159            3160
             3161            3162            3163            3164            3165            3166            3167            3168            3169            3170
             3171            3172            3173            3174            3175            3176            3177            3178            3179            3180
             3181            3182            3183            3184            3185            3186            3187            3188            3189            3190
             3191            3192            3193            3194            3195            3196            3197            3198            3199            3200
             3201            3202            3203            3204            3205            3206            3207            3208            3209            3210
             3211            3212            3213            3214            3215            3216            3217            3218            3219            3220
             3221            3222            3223            3224            3225            3226            3227            3228            3229            3230
             3231            3232            3233            3234            3235            3236            3237            3238            3239            3240
             3241            3242            3243            3244            3245            3246            3247            3248            3249            3250
             3251            3252            3253            3254            3255            3256            3257            3258            3259            3260
             3261            3262            3263            3264            3265            3266            3267            3268            3269            3270
             3271            3272            3273            3274            3275            3276            3277            3278            3279            3280
             3281            3282            3283            3284            3285            3286            3287            3288            3289            3290
             3291            3292            3293            3294            3295            3296            3297            3298            3299            3300
             3301            3302            3303            3304            3305            3306            3307            3308            3309            3310
             3311            3312            3313            3314            3315            3316            3317            3318            3319            3320
             3321            3322            3323            3324            3325            3326            3327            3328            3329            3330
             3331            3332            3333            3334            3335            3336            3337            3338            3339            3340
             3341            3342            3343            3344            3345            3346            3347            3348            3349            3350
             3351            3352            3353            3354            3355            3356            3357            3358            3359            3360
             3361            3362            3363            3364            3365            3366            3367            3368            3369            3370
             3371            3372            3373            3374            3375            3376            3377            3378            3379            3380
             3381            3382            3383            3384            3385            3386            3387            3388            3389            3390
             3391            3392            3393            3394            3395            3396            3397            3398            3399            3400
             3401            3402            3403            3404            3405            3406            3407            3408            3409            3410
             3411            3412            3413            3414            3415            3416            3417            3418            3419            3420
             3421            3422            3423            3424            3425            3426            3427            3428            3429            3430
             3431            3432            3433            3434            3435            3436            3437            3438            3439            3440
             3441            3442            3443            3444            3445            3446            3447            3448            3449            3450
             3451            3452            3453            3454            3455            3456            3457            3458            3459            3460
             3461            3462            3463            3464            3465            3466            3467            3468            3469            3470
             3471            3472            3473            3474            3475            3476            3477            3478            3479            3480
             3481            3482            3483            3484            3485            3486            3487            3488            3489            3490
             3491            3492            3493            3494            3495            3496            3497            3498            3499            3500
             3501            3502            3503            3504            3505            3506            3507            3508            3509            3510
             3511            3512            3513            3514            3515            3516            3517            3518            3519            3520
             3521            3522            3523            3524            3525            3526            3527            3528            3529            3530
             3531            3532            3533            3534            3535            3536            3537            3538            3539            3540
             3541            3542            3543            3544            3545            3546            3547            3548            3549            3550
             3551            3552            3553            3554            3555            3556            3557            3558            3559            3560
             3561            3562            3563            3564            3565            3566            3567            3568            3569            3570
             3571            3572            3573            3574            3575            3576            3577            3578            3579            3580
             3581            3582            3583            3584            3585            3586            3587            3588            3589            3590
             3591            3592            3593            3594            3595            3596            3597            3598            3599            3600
             3601            3602            3603            3604            3605            3606            3607            3608            3609            3610
             3611            3612            3613            3614            3615            3616            3617            3618            3619            3620
             3621            3622            3623            3624            3625            3626            3627            3628            3629            3630
             3631            3632            3633            3634            3635            3636            3637            3638            3639            3640
             3641            3642            3643            3644            3645            3646            3647            3648            3649            3650
             3651            3652            3653            3654            3655            3656            3657            3658            3659            3660
             3661            3662            3663            3664            3665            3666            3667            3668            3669            3670
             3671            3672            3673            3674            3675            3676            3677            3678            3679            3680
             3681            3682            3683            3684            3685            3686            3687            3688            3689            3690
             3691            3692            3693            3694            3695            3696            3697            3698            3699            3700
             3701            3702            3703            3704            3705            3706            3707            3708            3709            3710
             3711            3712            3713            3714            3715            3716            3717            3718            3719            3720
             3721            3722            3723            3724            3725            3726            3727            3728            3729            3730
             3731            3732            3733            3734            3735            3736            3737            3738            3739            3740
             3741            3742            3743            3744            3745            3746            3747            3748            3749            3750
             3751            3752            3753            3754            3755            3756            3757            3758            3759            3760
             3761            3762            3763            3764            3765            3766            3767            3768            3769            3770
             3771            3772            3773            3774            3775            3776            3777            3778            3779            3780
             3781            3782            3783
 ................................................................................................................................................................
   1      133.680         133.679         133.678         133.677         133.680         133.683         133.680         133.683         133.690         133.709    
          133.737         133.772         133.815         133.863         133.915         133.971         134.029         134.087         134.145         134.202    
          134.253         134.296         134.324         133.677         133.678         133.678         133.677         133.677         133.679         133.682    
          133.679         133.682         133.687         133.692         133.686         133.692         133.706         133.733         133.767         133.809    
          133.857         133.909         133.965         134.023         134.082         134.142         134.199         134.253         134.302         134.343    
          134.378         133.673         133.675         133.676         133.677         133.677         133.678         133.681         133.687         133.692    
          133.687         133.692         133.701         133.709         133.700         133.708         133.723         133.735         133.721         133.734    
          133.760         133.800         133.848         133.900         133.956         134.015         134.075         134.136         134.196         134.254    
          134.308         134.358         134.403         134.443         133.668         133.671         133.673         133.676         133.677         133.678    
          133.680         133.683         133.691         133.704         133.720         133.733         133.720         133.731         133.749         133.763    
          133.746         133.762         133.792         133.838         133.889         133.946         134.006         134.067         134.129         134.191    
          134.252         134.312         134.369         134.423         134.473         134.519         133.663         133.666         133.670         133.673    
          133.676         133.678         133.681         133.684         133.688         133.696         133.708         133.726         133.746         133.761    
          133.747         133.760         133.780         133.796         133.778         133.796         133.830         133.880         133.937         133.997    
          134.058         134.121         134.185         134.250         134.314         134.377         134.439         134.499         134.556         134.609    
          133.657         133.661         133.665         133.669         133.674         133.678         133.682         133.686         133.690         133.696    
          133.703         133.715         133.732         133.756         133.779         133.797         133.781         133.797         133.818         133.837    
          133.818         133.839         133.875         133.931         133.990         134.051         134.114         134.179         134.246         134.314    
          134.383         134.452         134.520         134.588         134.654         134.717         133.651         133.655         133.659         133.665    
          133.670         133.676         133.681         133.687         133.692         133.698         133.705         133.714         133.726         133.742    
          133.764         133.794         133.821         133.841         133.825         133.843         133.866         133.887         133.867         133.890    
          133.929         133.986         134.046         134.108         134.173         134.241         134.312         134.385         134.460         134.537    
          134.615         134.694         134.773         134.850         133.644         133.648         133.653         133.659         133.665         133.672    
          133.679         133.686         133.693         133.700         133.708         133.717         133.727         133.740         133.757         133.778    
          133.806         133.842         133.872         133.895         133.878         133.898         133.921         133.943         133.924         133.948    
          133.987         134.043         134.103         134.166         134.235         134.308         134.385         134.465         134.550         134.637    
          134.728         134.823         134.921         135.021         133.639         133.642         133.647         133.652         133.654         133.651    
          133.654         133.659         133.667         133.675         133.683         133.691         133.700         133.709         133.719         133.730    
          133.742         133.757         133.774         133.796         133.824         133.857         133.898         133.930         133.953         133.936    
          133.957         133.980         134.002         133.984         134.005         134.032         134.055         134.034         134.056         134.087    
          134.113         134.086         134.114         134.161         134.228         134.301         134.381         134.467         134.557         134.653    
          134.754         134.862         134.980         135.112         135.284         135.432         135.564         135.688         135.806         135.920    
          136.030         136.137         136.242         136.346         136.449         136.551         136.653         136.756         136.861         136.968    
          137.077         137.190         137.307         137.427         137.549         137.673         137.798         137.923         138.050         138.180    
          138.313         138.451         138.595         138.744         138.900         139.060         139.221         139.379         139.527         139.636    
          133.639         133.642         133.646         133.648         133.646         133.648         133.651         133.652         133.651         133.652    
          133.655         133.652         133.655         133.661         133.669         133.678         133.688         133.698         133.709         133.720    
          133.731         133.744         133.758         133.775         133.794         133.816         133.843         133.876         133.913         133.955    
          134.000         134.049         134.088         134.115         134.091         134.115         134.147         134.172         134.146         134.171    
          134.208         134.238         134.205         134.238         134.294         134.376         134.464         134.559         134.660         134.769    
          134.886         135.014         135.148         135.292         135.431         135.560         135.682         135.799         135.912         136.022    
          136.129         136.234         136.337         136.440         136.543         136.646         136.749         136.854         136.962         137.072    
          137.186         137.305         137.426         137.550         137.675         137.801         137.927         138.054         138.184         138.318    
          138.458         138.603         138.755         138.913         139.074         139.241         139.409         139.579         139.740         139.898    
          133.639         133.642         133.647         133.654         133.663         133.672         133.683         133.694         133.706         133.718    
          133.731         133.745         133.759         133.775         133.793         133.814         133.837         133.864         133.895         133.930    
          133.969         134.011         134.057         134.106         134.160         134.205         134.238         134.206         134.238         134.290    
          134.370         134.459         134.556         134.660         134.774         134.896         135.027         135.161         135.294         135.426    
          135.551         135.671         135.786         135.898         136.006         136.113         136.218         136.321         136.425         136.528    
          136.632         136.736         136.843         136.952         137.064         137.180         137.301         137.425         137.551         137.678    
          137.805         137.932         138.060         138.191         138.327         138.468         138.616         138.771         138.931         139.097    
          139.270         139.449         139.638         139.824         140.003         140.165         133.640         133.643         133.648         133.656    
          133.666         133.676         133.688         133.700         133.714         133.728         133.743         133.758         133.775         133.792    
          133.812         133.834         133.858         133.885         133.915         133.949         133.985         134.025         134.068         134.114    
          134.166         134.208         134.239         134.212         134.239         134.275         134.304         134.273         134.307         134.365    
          134.452         134.548         134.654         134.769         134.893         135.027         135.159         135.287         135.415         135.537    
          135.654         135.768         135.878         135.985         136.091         136.196         136.300         136.404         136.509         136.614    
          136.720         136.828         136.940         137.054         137.172         137.297         137.424         137.552         137.681         137.810    
          137.938         138.068         138.200         138.337         138.481         138.630         138.788         138.952         139.124         139.302    
          139.489         139.689         139.887         140.079         140.257         140.409         133.641         133.644         133.650         133.659    
          133.669         133.681         133.694         133.708         133.722         133.738         133.755         133.772         133.790         133.810    
          133.830         133.853         133.878         133.905         133.935         133.968         134.003         134.041         134.082         134.126    
          134.175         134.230         134.276         134.309         134.280         134.308         134.347         134.380         134.346         134.382    
          134.444         134.538         134.642         134.757         134.881         135.015         135.147         135.273         135.399         135.519    
          135.634         135.746         135.854         135.961         136.066         136.171         136.276         136.381         136.487         136.594    
          136.702         136.813         136.926         137.043         137.164         137.292         137.423         137.553         137.684         137.815    
          137.945         138.077         138.210         138.347         138.492         138.645         138.805         138.973         139.150         139.332    
          139.524         139.728         139.932         140.129         140.315         140.481         140.614         133.643         133.646         133.653    
          133.662         133.673         133.686         133.700         133.715         133.731         133.749         133.767         133.786         133.806    
          133.826         133.849         133.872         133.898         133.926         133.956         133.988         134.022         134.059         134.099    
          134.141         134.188         134.240         134.299         134.348         134.383         134.352         134.382         134.424         134.459    
          134.422         134.460         134.527         134.628         134.740         134.863         134.998         135.130         135.255         135.379    
          135.498         135.611         135.721         135.827         135.934         136.039         136.144         136.250         136.357         136.464    
          136.573         136.684         136.797         136.913         137.033         137.158         137.288         137.422         137.555         137.687    
          137.820         137.952         138.085         138.219         138.357         138.503         138.659         138.822         138.992         139.172    
          139.359         139.554         139.759         139.962         140.158         140.346         140.519         140.665         140.776         133.645    
          133.649         133.656         133.665         133.677         133.691         133.707         133.723         133.741         133.759         133.779    
          133.800         133.821         133.843         133.866         133.891         133.917         133.945         133.975         134.008         134.042    
          134.078         134.117         134.159         134.203         134.253         134.309         134.371         134.423         134.460         134.426    
          134.458         134.504         134.541         134.500         134.542         134.614         134.722         134.843         134.976         135.108    
          135.233         135.356         135.473         135.585         135.693         135.799         135.905         136.010         136.116         136.223    
          136.331         136.441         136.552         136.666         136.783         136.902         137.026         137.153         137.286         137.422    
          137.557         137.691         137.825         137.959         138.094         138.230         138.368         138.514         138.670         138.836    
          139.009         139.191         139.384         139.582         139.783         139.980         140.170         140.356         140.532         140.683    
          140.802         140.874         133.648         133.652         133.659         133.670         133.682         133.697         133.714         133.731    
          133.750         133.770         133.791         133.813         133.835         133.859         133.883         133.908         133.935         133.964    
          133.995         134.027         134.062         134.098         134.137         134.178         134.222         134.269         134.322         134.380    
          134.445         134.501         134.541         134.504         134.538         134.587         134.627         134.583         134.628         134.706    
          134.824         134.955         135.086         135.210         135.331         135.447         135.558         135.665         135.770         135.875    
          135.981         136.088         136.196         136.306         136.418         136.532         136.649         136.770         136.894         137.020    
          137.150         137.286         137.423         137.560         137.696         137.831         137.966         138.103         138.240         138.380    
          138.527         138.683         138.847         139.023         139.210         139.407         139.605         139.800         139.989         140.172    
          140.353         140.526         140.648         140.705         140.636         140.702         140.796         140.862         133.651         133.656    
          133.663         133.674         133.688         133.703         133.721         133.740         133.760         133.781         133.803         133.826    
          133.849         133.874         133.899         133.925         133.953         133.983         134.014         134.047         134.082         134.119    
          134.158         134.199         134.242         134.289         134.339         134.394         134.455         134.525         134.584         134.628    
          134.586         134.619         134.636         134.619         134.636         134.678         134.721         134.673         134.723         134.810    
          134.913         134.968         134.903         134.966         135.065         135.189         135.308         135.421         135.530         135.636    
          135.740         135.845         135.952         136.059         136.169         136.281         136.396         136.514         136.635         136.760    
          136.888         137.018         137.151         137.287         137.425         137.563         137.701         137.838         137.975         138.112    
          138.251         138.393         138.541         138.697         138.862         139.036         139.228         139.429         139.623         139.810    
          139.991         140.167         140.342         140.479         140.545         140.469         140.533         140.610         140.639         140.606    
          140.635         140.688         140.614         140.673         140.770         140.835         133.655         133.660         133.668         133.679    
          133.694         133.710         133.728         133.748         133.769         133.791         133.815         133.839         133.863         133.888    
          133.914         133.941         133.970         134.000         134.033         134.067         134.103         134.141         134.180         134.222    
          134.265         134.311         134.361         134.414         134.472         134.538         134.591         134.629         134.598         134.632    
          134.674         134.723         134.677         134.725         134.803         134.897         134.948         134.974         134.946         134.972    
          134.891         134.953         135.025         135.078         135.015         135.076         135.170         135.285         135.394         135.501    
          135.607         135.711         135.817         135.923         136.031         136.143         136.258         136.376         136.498         136.624    
          136.752         136.885         137.020         137.155         137.292         137.430         137.568         137.707         137.846         137.984    
          138.123         138.264         138.407         138.556         138.713         138.879         139.056         139.250         139.449         139.637    
          139.815         139.986         140.154         140.321         140.480         140.622         140.735         140.799         133.659         133.664    
          133.673         133.685         133.700         133.717         133.736         133.756         133.778         133.801         133.826         133.850    
          133.876         133.902         133.929         133.956         133.986         134.018         134.051         134.087         134.124         134.163    
          134.203         134.245         134.290         134.336         134.386         134.439         134.496         134.558         134.628         134.685    
          134.729         134.692         134.735         134.805         134.889         134.936         134.961         134.933         134.961         134.887    
          134.931         134.959         134.932         134.956         135.008         135.071         135.002         135.063         135.134         135.181    
          135.123         135.178         135.263         135.369         135.475         135.579         135.683         135.788         135.895         136.005    
          136.118         136.236         136.358         136.484         136.614         136.748         136.885         137.024         137.163         137.300    
          137.437         137.576         137.715         137.855         137.995         138.137         138.279         138.424         138.577         138.696    
          138.763         138.701         138.779         138.901         139.081         139.273         139.423         139.505         139.426         139.496    
          139.532         139.500         139.536         139.605         139.681         139.604         139.688         139.814         139.978         140.140    
          140.298         140.450         140.588         140.697         140.759         133.663         133.669         133.678         133.691         133.706    
          133.724         133.743         133.764         133.787         133.811         133.836         133.861         133.888         133.915         133.934    
          133.945         133.938         133.951         133.971         134.002         134.035         134.070         134.106         134.145         134.184    
          134.226         134.270         134.315         134.363         134.414         134.468         134.525         134.586         134.653         134.704    
          134.744         134.716         134.750         134.791         134.832         134.795         134.841         134.887         134.943         134.893    
          134.938         134.988         135.011         134.987         135.010         135.057         134.995         135.051         135.105         135.127    
          135.102         135.124         135.170         135.107         135.162         135.227         135.270         135.216         135.265         135.347    
          135.450         135.553         135.656         135.760         135.868         135.979         136.095         136.216         136.342         136.473    
          136.608         136.747         136.888         137.031         137.173         137.280         137.337         137.280         137.346         137.447    
          137.586         137.726         137.867         138.009         138.152         138.297         138.446         138.602         138.717         138.776    
          138.808         138.781         138.813         138.734         138.803         138.882         138.954         138.896         138.964         139.104    
          139.295         139.433         139.523         139.438         139.526         139.590         139.623         139.592         139.624         139.689    
          139.610         139.691         139.812         139.969         140.123         140.275         140.422         140.556         140.662         140.723    
          133.666         133.674         133.685         133.698         133.714         133.731         133.751         133.772         133.795         133.820    
          133.845         133.872         133.899         133.919         133.930         133.923         133.935         133.940         133.946         133.943    
          133.948         133.958         133.951         133.963         133.984         134.017         134.052         134.088         134.126         134.165    
          134.207         134.250         134.295         134.342         134.392         134.444         134.498         134.555         134.615         134.680    
          134.749         134.804         134.847         134.812         134.853         134.919         134.994         135.037         135.058         135.035    
          135.057         134.993         135.043         135.100         135.155         135.094         135.148         135.199         135.218         135.196    
          135.215         135.254         135.202         135.245         135.327         135.429         135.530         135.631         135.734         135.842    
          135.955         136.075         136.199         136.329         136.465         136.606         136.749         136.895         137.043         137.155    
          137.213         137.161         137.220         137.270         137.299         137.274         137.303         137.355         137.299         137.361    
          137.430         137.488         137.419         137.446         137.422         137.449         137.498         137.599         137.739         137.881    
          138.025         138.170         138.318         138.472         138.630         138.789         138.951         139.083         139.165         139.086    
          139.156         139.194         139.161         139.197         139.268         139.350         139.270         139.363         139.446         139.513    
          139.547         139.515         139.549         139.453         139.537         139.613         139.691         139.623         139.689         139.810    
          139.959         140.108         140.256         140.399         140.529         140.632         140.691         133.681         133.693         133.706    
          133.722         133.740         133.759         133.781         133.804         133.828         133.854         133.881         133.909         133.938    
          133.967         133.999         134.032         134.068         134.106         134.145         134.186         134.229         134.274         134.321    
          134.369         134.420         134.474         134.529         134.586         134.645         134.707         134.773         134.822         134.861    
          134.829         134.867         134.926         134.994         135.031         135.050         135.029         135.048         134.996         135.035    
          135.088         135.139         135.085         135.135         135.212         135.311         135.410         135.510         135.611         135.713    
          135.820         135.935         136.058         136.186         136.320         136.461         136.607         136.756         136.905         137.055    
          137.201         137.344         137.445         137.510         137.458         137.514         137.617         137.756         137.898         138.042    
          138.189         138.340         138.497         138.618         138.686         138.624         138.681         138.712         138.686         138.716    
          138.771         138.841         138.776         138.853         138.929         139.000         138.933         139.011         139.069         139.110    
          139.069         139.115         139.184         139.074         139.121         139.077         139.123         139.170         139.209         139.170    
          139.214         139.277         139.371         139.261         139.301         139.262         139.307         139.377         139.460         139.542    
          139.466         139.546         139.664         139.782         139.845         139.781         139.836         139.864         139.837         139.865    
          139.924         139.983         139.925         139.982         140.097         140.243         140.384         140.510         140.609         140.667    
          133.702         133.716         133.731         133.748         133.768         133.789         133.812         133.836         133.863         133.890    
          133.919         133.949         133.980         134.013         134.048         134.085         134.124         134.165         134.208         134.252    
          134.298         134.346         134.396         134.448         134.502         134.558         134.615         134.673         134.734         134.778    
          134.804         134.786         134.816         134.839         134.875         134.849         134.883         134.935         135.017         135.085    
          135.132         135.088         135.129         135.183         135.224         135.169         135.188         135.168         135.187         135.225    
          135.299         135.397         135.498         135.598         135.699         135.807         135.900         135.952         135.892         135.951    
          136.022         136.079         136.015         136.080         136.152         136.208         136.147         136.212         136.317         136.463    
          136.614         136.766         136.920         137.073         137.222         137.364         137.502         137.639         137.775         137.915    
          138.060         138.209         138.361         138.517         138.632         138.709         138.640         138.700         138.731         138.702    
          138.733         138.785         138.860         138.795         138.862         138.939         139.019         138.945         139.007         139.040    
          139.007         139.044         139.081         139.126         139.087         139.126         139.173         139.217         139.178         139.217    
          139.110         139.203         139.264         139.312         139.267         139.315         139.386         139.272         139.319         139.277    
          139.320         139.371         139.410         139.373         139.413         139.455         139.487         139.459         139.490         139.551    
          139.482         139.552         139.673         139.784         139.852         139.792         139.851         139.959         140.101         140.243    
          140.378         140.500         140.597         140.653         133.727         133.741         133.758         133.777         133.798         133.820    
          133.845         133.872         133.900         133.929         133.960         133.992         134.027         134.063         134.101         134.142    
          134.185         134.229         134.275         134.322         134.372         134.423         134.475         134.530         134.585         134.642    
          134.700         134.759         134.799         134.828         134.811         134.838         134.860         134.893         134.873         134.901    
          134.930         134.960         134.937         134.970         135.025         135.111         135.179         135.227         135.182         135.231    
          135.299         135.395         135.496         135.575         135.617         135.574         135.622         135.697         135.781         135.827    
          135.780         135.833         135.889         135.950         135.892         135.953         136.014         136.081         136.017         136.084    
          136.135         136.161         136.136         136.162         136.215         136.152         136.220         136.324         136.474         136.627    
          136.783         136.940         137.096         137.211         137.270         137.220         137.281         137.349         137.409         137.339    
          137.367         137.343         137.371         137.422         137.522         137.659         137.795         137.934         138.081         138.231    
          138.382         138.534         138.646         138.721         138.652         138.728         138.838         138.953         139.011         139.048    
          139.016         139.048         138.958         139.038         139.116         139.208         139.124         139.195         139.231         139.197    
          139.233         139.302         139.399         139.306         139.404         139.530         139.687         139.833         139.974         140.114    
          140.252         140.385         140.504         140.598         140.653         133.753         133.769         133.787         133.807         133.830    
          133.854         133.881         133.909         133.939         133.971         134.005         134.040         134.078         134.118         134.160    
          134.204         134.250         134.297         134.346         134.396         134.448         134.502         134.556         134.612         134.668    
          134.725         134.783         134.842         134.905         134.949         134.982         134.961         134.992         135.023         135.056    
          135.034         135.068         135.104         135.141         135.115         135.153         135.191         135.239         135.204         135.246    
          135.290         135.328         135.299         135.338         135.383         135.426         135.394         135.437         135.484         135.526    
          135.496         135.538         135.581         135.619         135.640         135.622         135.643         135.595         135.639         135.685    
          135.728         135.696         135.740         135.785         135.840         135.800         135.848         135.899         135.960         135.911    
          135.973         136.024         136.091         136.037         136.103         136.160         136.231         136.172         136.242         136.343    
          136.492         136.648         136.806         136.964         137.118         137.266         137.368         137.436         137.378         137.446    
          137.543         137.679         137.815         137.956         138.103         138.255         138.407         138.557         138.664         138.738    
          138.674         138.731         138.761         138.735         138.765         138.818         138.880         138.826         138.889         138.963    
          139.045         138.973         139.036         139.069         139.040         139.073         139.132         139.220         139.144         139.223    
          139.315         139.390         139.428         139.391         139.430         139.326         139.410         139.504         139.573         139.510    
          139.580         139.703         139.853         139.996         140.137         140.273         140.403         140.519         140.610         140.664    
          133.782         133.799         133.818         133.841         133.865         133.891         133.920         133.950         133.982         134.017    
          134.054         134.093         134.134         134.178         134.224         134.271         134.320         134.369         134.420         134.473    
          134.527         134.582         134.638         134.694         134.751         134.808         134.868         134.930         134.997         135.072    
          135.155         135.244         135.339         135.439         135.540         135.641         135.741         135.850         135.932         135.990    
          135.954         136.007         136.054         136.118         136.078         136.135         136.188         136.260         136.207         136.278    
          136.336         136.397         136.349         136.416         136.520         136.677         136.835         136.992         137.147         137.259    
          137.318         137.268         137.319         137.348         137.326         137.355         137.391         137.458         137.408         137.465    
          137.565         137.700         137.837         137.980         138.130         138.285         138.436         138.584         138.688         138.757    
          138.703         138.763         138.874         138.984         139.064         138.999         139.069         139.198         139.378         139.558    
          139.726         139.879         140.024         140.166         140.300         140.428         140.541         140.629         140.683         133.813    
          133.832         133.853         133.877         133.902         133.931         133.961         133.994         134.030         134.068         134.108    
          134.151         134.196         134.243         134.292         134.342         134.393         134.445         134.498         134.553         134.609    
          134.664         134.721         134.777         134.835         134.896         134.960         135.029         135.106         135.190         135.283    
          135.380         135.481         135.585         135.655         135.695         135.670         135.717         135.784         135.896         136.017    
          136.144         136.234         136.302         136.257         136.328         136.371         136.440         136.399         136.456         136.561    
          136.715         136.872         137.027         137.180         137.284         137.351         137.302         137.360         137.459         137.592    
          137.724         137.862         138.007         138.160         138.317         138.469         138.616         138.759         138.905         139.059    
          139.225         139.399         139.578         139.748         139.906         140.056         140.198         140.333         140.459         140.571    
          140.659         140.712         133.847         133.867         133.890         133.915         133.943         133.974         134.007         134.043    
          134.082         134.123         134.167         134.214         134.263         134.313         134.364         134.417         134.470         134.524    
          134.580         134.636         134.693         134.749         134.806         134.865         134.927         134.994         135.066         135.145    
          135.233         135.328         135.429         135.532         135.604         135.643         135.625         135.667         135.679         135.699    
          135.690         135.710         135.744         135.722         135.765         135.837         135.955         136.080         136.168         136.220    
          136.194         136.257         136.289         136.356         136.322         136.384         136.470         136.614         136.762         136.915    
          137.069         137.218         137.360         137.459         137.514         137.470         137.532         137.623         137.756         137.893    
          138.039         138.195         138.353         138.506         138.656         138.802         138.948         139.098         139.257         139.429    
          139.606         139.775         139.935         140.088         140.232         140.369         140.496         140.609         140.699         140.751    
          133.884         133.906         133.930         133.957         133.988         134.021         134.057         134.097         134.140         134.184    
          134.233         134.283         134.335         134.388         134.442         134.497         134.553         134.609         134.666         134.723    
          134.780         134.838         134.898         134.963         135.033         135.108         135.189         135.280         135.379         135.481    
          135.585         135.689         135.793         135.904         136.026         136.154         136.235         136.296         136.269         136.334    
          136.359         136.422         136.395         136.454         136.536         136.673         136.815         136.964         137.114         137.264    
          137.367         137.421         137.386         137.443         137.472         137.498         137.481         137.507         137.553         137.515    
          137.569         137.664         137.797         137.934         138.079         138.236         138.395         138.551         138.704         138.851    
          138.997         139.144         139.299         139.466         139.638         139.807         139.967         140.121         140.269         140.409    
          140.538         140.654         140.744         140.796         133.924         133.947         133.974         134.004         134.037         134.073    
          134.114         134.144         134.162         134.152         134.170         134.187         134.208         134.188         134.198         134.192    
          134.201         134.218         134.251         134.304         134.358         134.413         134.469         134.525         134.583         134.640    
          134.698         134.756         134.815         134.875         134.937         135.004         135.077         135.155         135.241         135.335    
          135.437         135.544         135.654         135.760         135.867         135.980         136.108         136.237         136.316         136.375    
          136.354         136.394         136.418         136.410         136.434         136.435         136.496         136.472         136.530         136.606    
          136.735         136.872         137.016         137.163         137.310         137.450         137.583         137.717         137.851         137.989    
          138.136         138.288         138.442         138.601         138.755         138.904         139.050         139.196         139.348         139.509    
          139.675         139.842         140.002         140.158         140.309         140.451         140.584         140.701         140.793         140.845    
          133.967         133.993         134.022         134.054         134.091         134.131         134.174         134.205         134.229         134.215    
          134.236         134.272         134.326         134.382         134.439         134.497         134.556         134.615         134.675         134.734    
          134.794         134.854         134.916         134.981         135.051         135.129         135.213         135.303         135.402         135.511    
          135.627         135.740         135.846         135.948         136.019         136.072         136.060         136.122         136.150         136.207    
          136.172         136.196         136.190         136.215         136.252         136.329         136.402         136.456         136.445         136.496    
          136.515         136.575         136.556         136.610         136.680         136.800         136.931         137.072         137.216         137.363    
          137.506         137.643         137.779         137.915         138.057         138.203         138.346         138.495         138.652         138.805    
          138.954         139.103         139.251         139.401         139.559         139.720         139.882         140.042         140.198         140.349    
          140.495         140.630         140.751         140.845         140.897         134.015         134.043         134.075         134.110         134.150    
          134.195         134.242         134.295         134.350         134.407         134.467         134.528         134.589         134.650         134.712    
          134.774         134.835         134.898         134.963         135.033         135.109         135.193         135.284         135.381         135.486    
          135.606         135.730         135.847         135.951         136.057         136.182         136.252         136.317         136.308         136.363    
          136.432         136.541         136.603         136.656         136.641         136.696         136.715         136.762         136.751         136.783    
          136.804         136.797         136.818         136.825         136.877         136.855         136.909         136.991         137.086         137.145    
          137.105         137.173         137.270         137.421         137.569         137.665         137.724         137.692         137.765         137.804    
          137.864         137.838         137.903         137.991         138.132         138.228         138.284         138.249         138.316         138.359    
          138.419         138.364         138.390         138.374         138.400         138.447         138.550         138.661         138.725         138.680    
          138.754         138.857         139.010         139.160         139.309         139.458         139.611         139.769         139.928         140.086    
          140.241         140.392         140.539         140.678         140.801         140.897         140.949         134.067         134.098         134.133    
          134.173         134.217         134.266         134.319         134.375         134.435         134.496         134.560         134.624         134.688    
          134.753         134.817         134.882         134.949         135.019         135.096         135.179         135.270         135.369         135.475    
          135.595         135.727         135.858         135.982         136.091         136.200         136.317         136.430         136.495         136.540    
          136.544         136.592         136.639         136.691         136.739         136.732         136.762         136.781         136.779         136.798    
          136.788         136.837         136.826         136.857         136.877         136.871         136.891         136.890         136.947         136.925    
          136.982         137.013         137.067         137.042         137.104         137.115         137.143         137.129         137.157         137.206    
          137.173         137.231         137.334         137.490         137.594         137.655         137.625         137.700         137.708         137.737    
          137.725         137.755         137.806         137.776         137.851         137.880         137.926         137.955         137.943         137.972    
          137.922         137.990         138.021         138.080         138.057         138.121         138.155         138.210         138.186         138.247    
          138.278         138.344         138.311         138.376         138.411         138.483         138.444         138.515         138.614         138.715    
          138.768         138.799         138.782         138.813         138.744         138.822         138.871         138.938         138.898         138.968    
          139.067         139.216         139.322         139.386         139.342         139.420         139.471         139.535         139.502         139.566    
          139.623         139.689         139.653         139.718         139.778         139.845         139.807         139.873         139.934         140.000    
          139.960         140.026         140.088         140.154         140.113         140.178         140.241         140.308         140.261         140.335    
          140.393         140.458         140.412         140.484         140.540         140.604         140.559         140.628         140.724         140.850    
          140.947         141.000         134.125         134.160         134.199         134.243         134.291         134.345         134.402         134.463    
          134.528         134.594         134.661         134.729         134.797         134.865         134.934         135.005         135.082         135.165    
          135.257         135.357         135.468         135.590         135.725         135.867         136.005         136.132         136.239         136.344    
          136.457         136.512         136.551         136.571         136.616         136.585         136.604         136.611         136.628         136.653    
          136.667         136.699         136.739         136.782         136.820         136.819         136.859         136.862         136.908         136.898    
          136.943         136.960         136.997         137.019         137.011         137.033         136.994         137.050         137.075         137.140    
          137.113         137.166         137.261         137.413         137.570         137.671         137.745         137.706         137.785         137.820    
          137.870         137.900         137.886         137.915         137.860         137.931         137.962         138.028         138.001         138.044    
          138.068         138.058         138.084         138.093         138.136         138.162         138.149         138.175         138.104         138.130    
          138.119         138.143         138.188         138.219         138.261         138.285         138.273         138.298         138.256         138.310    
          138.344         138.390         138.417         138.405         138.432         138.358         138.386         138.374         138.402         138.448    
          138.481         138.558         138.520         138.591         138.685         138.781         138.854         138.809         138.885         138.929    
          139.002         138.965         139.029         139.083         139.145         139.114         139.177         139.229         139.291         139.262    
          139.324         139.373         139.450         139.409         139.472         139.579         139.732         139.883         140.034         140.186    
          140.288         140.359         140.314         140.380         140.435         140.508         140.463         140.529         140.583         140.654    
          140.611         140.673         140.730         140.788         140.748         140.812         140.896         140.994         141.046         134.190    
          134.228         134.271         134.319         134.373         134.431         134.494         134.560         134.629         134.700         134.772    
          134.844         134.916         134.989         135.065         135.149         135.242         135.343         135.455         135.579         135.717    
          135.866         136.013         136.149         136.270         136.377         136.487         136.594         136.685         136.765         136.802    
          136.828         136.837         136.855         136.868         136.871         136.886         136.862         136.881         136.895         136.895    
          136.909         136.899         136.930         136.932         136.976         136.966         137.009         137.027         137.087         137.059    
          137.116         137.198         137.343         137.497         137.653         137.753         137.802         137.833         137.817         137.848    
          137.790         137.858         137.898         137.968         137.938         137.997         138.016         138.040         138.029         138.052    
          138.093         138.065         138.125         138.155         138.221         138.186         138.248         138.334         138.420         138.488    
          138.452         138.523         138.559         138.631         138.594         138.666         138.707         138.766         138.742         138.800    
          138.843         138.916         138.880         138.939         139.043         139.194         139.344         139.495         139.648         139.799    
          139.946         140.094         140.242         140.387         140.533         140.678         140.773         140.837         140.795         140.852    
          140.903         140.950         140.917         140.969         141.030         141.077         134.261         134.303         134.351         134.404    
          134.462         134.526         134.595         134.666         134.741         134.817         134.893         134.969         135.048         135.132    
          135.224         135.325         135.435         135.559         135.698         135.849         136.003         136.147         136.279         136.401    
          136.513         136.620         136.712         136.791         136.826         136.850         136.862         136.877         136.889         136.893    
          136.905         136.879         136.893         136.907         136.908         136.922         136.917         136.929         136.942         136.945    
          136.957         136.936         136.952         136.963         136.967         136.979         136.972         137.003         137.001         137.044    
          137.043         137.082         137.075         137.099         137.092         137.118         137.161         137.142         137.198         137.285    
          137.434         137.585         137.731         137.879         138.019         138.101         138.139         138.162         138.151         138.175    
          138.132         138.185         138.218         138.284         138.254         138.308         138.400         138.491         138.559         138.521    
          138.592         138.629         138.699         138.664         138.722         138.821         138.966         139.115         139.269         139.423    
          139.575         139.725         139.872         140.016         140.161         140.303         140.442         140.581         140.719         140.852    
          140.936         140.987         140.950         140.995         141.035         141.063         141.045         141.073         141.086         141.096    
          134.340         134.386         134.438         134.497         134.561         134.631         134.706         134.784         134.864         134.945    
          135.027         135.113         135.204         135.304         135.414         135.536         135.673         135.821         135.974         136.127    
          136.272         136.406         136.529         136.637         136.733         136.815         136.883         136.908         136.931         136.946    
          136.972         136.957         136.982         137.001         137.024         137.013         137.047         137.056         137.086         137.129    
          137.242         137.381         137.524         137.667         137.812         137.955         138.087         138.211         138.337         138.471    
          138.560         138.627         138.589         138.656         138.748         138.900         139.052         139.203         139.357         139.511    
          139.663         139.812         139.956         140.095         140.233         140.366         140.497         140.626         140.753         140.874    
          140.983         141.070         141.120         134.426         134.476         134.535         134.600         134.671         134.749         134.831    
          134.916         135.003         135.092         135.185         135.285         135.394         135.514         135.646         135.792         135.945    
          136.103         136.257         136.400         136.530         136.646         136.748         136.838         136.912         136.974         137.028    
          137.080         137.106         137.138         137.146         137.180         137.227         137.344         137.477         137.616         137.758    
          137.895         138.032         138.159         138.283         138.412         138.500         138.555         138.529         138.599         138.628    
          138.698         138.672         138.731         138.832         138.993         139.151         139.305         139.457         139.611         139.762    
          139.908         140.045         140.178         140.306         140.430         140.548         140.664         140.776         140.883         140.982    
          141.069         141.120         134.520         134.578         134.643         134.716         134.797         134.884         134.974         135.068    
          135.165         135.267         135.376         135.494         135.622         135.764         135.918         136.077         136.237         136.391    
          136.532         136.658         136.768         136.865         136.947         137.015         137.074         137.127         137.181         137.205    
          137.238         137.255         137.290         137.288         137.334         137.338         137.385         137.450         137.576         137.712    
          137.847         137.980         138.068         138.120         138.098         138.164         138.190         138.242         138.231         138.283    
          138.314         138.369         138.356         138.412         138.443         138.497         138.488         138.544         138.571         138.644    
          138.620         138.679         138.776         138.936         139.100         139.262         139.415         139.568         139.719         139.867    
          140.008         140.139         140.263         140.380         140.491         140.594         140.693         140.787         140.879         140.965    
          141.061         141.115         134.627         134.693         134.768         134.852         134.944         135.041         135.142         135.248    
          135.358         135.476         135.602         135.741         135.894         136.053         136.215         136.378         136.533         136.671    
          136.791         136.896         136.985         137.061         137.127         137.185         137.238         137.294         137.360         137.401    
          137.447         137.453         137.501         137.507         137.560         137.560         137.612         137.680         137.810         137.893    
          137.947         137.931         138.000         138.020         138.072         138.070         138.122         138.141         138.207         138.191    
          138.242         138.321         138.454         138.589         138.731         138.886         139.046         139.213         139.376         139.531    
          139.685         139.833         139.976         140.110         140.232         140.346         140.451         140.546         140.632         140.711    
          140.785         140.865         140.919         134.750         134.827         134.916         135.012         135.115         135.224         135.339    
          135.459         135.586         135.724         135.873         136.031         136.196         136.364         136.531         136.684         136.816    
          136.929         137.027         137.110         137.182         137.246         137.304         137.358         137.418         137.486         137.577    
          137.629         137.680         137.689         137.742         137.744         137.795         137.808         137.859         137.866         137.918    
          137.928         137.980         137.987         138.055         138.050         138.101         138.175         138.298         138.425         138.561    
          138.696         138.842         138.997         139.157         139.326         139.493         139.650         139.800         139.944         140.081    
          140.206         140.320         140.424         140.515         140.591         140.658         140.717         140.761         134.897         134.989    
          135.089         135.199         135.316         135.440         135.570         135.708         135.855         136.011         136.177         136.348    
          136.523         136.691         136.840         136.964         137.071         137.163         137.241         137.310         137.372         137.430    
          137.490         137.557         137.634         137.729         137.830         137.942         138.062         138.183         138.306         138.424    
          138.547         138.677         138.809         138.956         139.110         139.268         139.438         139.606         139.759         139.906    
          140.046         140.174         140.289         140.396         140.491         140.565         140.619         140.663         135.071         135.175    
          135.291         135.416         135.550         135.689         135.836         135.991         136.155         136.328         136.507         136.688    
          136.856         136.998         137.115         137.216         137.301         137.373         137.438         137.501         137.567         137.639    
          137.716         137.812         137.916         138.020         138.130         138.244         138.355         138.463         138.570         138.682    
          138.801         138.927         139.070         139.218         139.369         139.530         139.695         139.846         139.990         140.125    
          140.243         140.345         140.446         140.534         140.592         135.271         135.393         135.528         135.670         135.814    
          135.967         136.129         136.301         136.481         136.668         136.852         137.017         137.152         137.262         137.353    
          137.429         137.495         137.560         137.627         137.703         137.792         137.899         138.030         138.158         138.270    
          138.375         138.468         138.551         138.633         138.717         138.810         138.913         139.032         139.165         139.301    
          139.436         139.579         139.746         139.898         140.040         140.170         140.278         140.351         135.509         135.650    
          135.794         135.941         136.096         136.262         136.440         136.625         136.815         137.000         137.161         137.291    
          137.392         137.472         137.538         137.595         137.654         137.718         137.803         137.916         138.067         138.254    
          138.417         138.544         138.629         138.676         138.717         138.765         138.823         138.897         138.987         139.098    
          139.221         139.346         139.460         139.545         135.781         135.922         136.064         136.215         136.380         136.560    
          136.749         136.939         137.124         137.281         137.406         137.497         137.565         137.618         137.654         137.695    
          136.050         136.182         136.316         136.475         136.657         136.845         137.037         137.219         137.371         137.491    
          137.571         137.620         137.660         136.289         136.379         136.536         136.719         136.902         137.098         137.280    
          137.427         137.538         137.603    

 HEAD WILL BE SAVED ON UNIT 1020 AT END OF TIME STEP   48, STRESS PERIOD    2

 SFR PACKAGE (SFR) STAGES FOR EACH CONTROL VOLUME   PERIOD      2   STEP       48
 -------------------------------------------------------------------------------------------------------------
                                                                                      STREAMBED    STREAMBED  
   NUMBER   CELLID                  STAGE        DEPTH        WIDTH       GWF HEAD   CONDUCTANCE    GRADIENT  
 -------------------------------------------------------------------------------------------------------------
     1      (1,3210)              143.61       0.0000       0.0000       141.71       1016.1       1.0000     
     2      (1,3208)              143.50       0.0000       0.0000       141.47       319.68       1.0000     
     3      (1,3206)              143.45       0.0000       0.0000       141.47       615.17       1.0000     
     4      (1,3205)              143.45       0.0000       0.0000       141.33       955.58       1.0000     
     5      (1,3202)              143.45       0.0000       0.0000       141.20       490.75       1.0000     
     6      (1,3094)              143.45       0.0000       0.0000       141.18       478.66       1.0000     
     7      (1,3093)              143.42       0.0000       0.0000       141.08       1093.8       1.0000     
     8      (1,3090)              143.33       0.0000       0.0000       140.97       60.480       1.0000     
     9      (1,3088)              143.33       0.0000       0.0000       140.96       862.27       1.0000     
     10     (1,3087)              143.33       0.0000       0.0000       140.86       978.05       1.0000     
     11     (1,2975)              143.33       0.0000       0.0000       140.84       371.52       1.0000     
     12     (1,2972)              143.33       0.0000       0.0000       140.74       584.06       1.0000     
     13     (1,2970)              143.28       0.0000       0.0000       140.72       998.78       1.0000     
     14     (1,2969)              143.25       0.0000       0.0000       140.63       98.496       1.0000     
     15     (1,2817)              143.14       0.0000       0.0000       140.60       917.57       1.0000     
     16     (1,2814)              143.14       0.0000       0.0000       140.52       910.66       1.0000     
     17     (1,2813)              143.14       0.0000       0.0000       140.43       65.664       1.0000     
     18     (1,2965)              143.14       0.0000       0.0000       140.46       812.16       1.0000     
     19     (1,2962)              143.07       0.0000       0.0000       140.37       870.91       1.0000     
     20     (1,2961)              143.07       0.0000       0.0000       140.29       278.21       1.0000     
     21     (1,2809)              143.07       0.0000       0.0000       140.26       603.07       1.0000     
     22     (1,2806)              143.07       0.0000       0.0000       140.16       893.38       1.0000     
     23     (1,2805)              143.07       0.0000       0.0000       140.10       884.74       1.0000     
     24     (1,2802)              143.07       0.0000       0.0000       140.00       910.66       1.0000     
     25     (1,2801)              143.07       0.0000       0.0000       139.93       153.79       1.0000     
     26     (1,2799)              143.03       0.0000       0.0000       139.91       781.06       1.0000     
     27     (1,2796)              143.03       0.0000       0.0000       139.82       889.92       1.0000     
     28     (1,2795)              143.03       0.0000       0.0000       139.76       877.82       1.0000     
     29     (1,2792)              143.03       0.0000       0.0000       139.67       884.74       1.0000     
     30     (1,2791)              143.03       0.0000       0.0000       139.61       896.83       1.0000     
     31     (1,2788)              143.03       0.0000       0.0000       139.52       172.80       1.0000     
     32     (1,2790)              143.03       0.0000       0.0000       139.55       730.94       1.0000     
     33     (1,2789)              143.03       0.0000       0.0000       139.48       908.93       1.0000     
     34     (1,2786)              143.03       0.0000       0.0000       139.40       891.65       1.0000     
     35     (1,2785)              143.03       0.0000       0.0000       139.32       454.46       1.0000     
     36     (1,2952)              143.03       0.0000       0.0000       139.35       442.37       1.0000     
     37     (1,2949)              143.03       0.0000       0.0000       139.26       881.28       1.0000     
     38     (1,2948)              143.03       0.0000       0.0000       139.20       881.28       1.0000     
     39     (1,2945)              143.01       0.0000       0.0000       139.11       902.02       1.0000     
     40     (1,2944)              142.55       0.0000       0.0000       139.05       806.98       1.0000     
     41     (1,2946)              142.55       0.0000       0.0000       139.07       82.944       1.0000     
     42     (1,2943)              142.05       0.0000       0.0000       138.99       902.02       1.0000     
     43     (1,2942)              141.75       0.0000       0.0000       138.92       898.56       1.0000     
     44     (1,2939)              141.22       0.0000       0.0000       138.84       876.10       1.0000     
     45     (1,2938)              140.98       0.0000       0.0000       138.77       926.21       1.0000     
     46     (1,3071)              140.62       0.0000       0.0000       138.79       5.1840       1.0000     
     47     (1,3068)              140.43       0.0000       0.0000       138.71       1069.6       1.0000     
     48     (1,3067)              140.43       0.0000       0.0000       138.65       362.88       1.0000     
     49     (1,3069)              140.05       0.0000       0.0000       138.68       713.66       1.0000     
     50     (1,3066)              140.05       0.0000       0.0000       138.61       705.02       1.0000     
     51     (1,3183)              139.72       0.0000       0.0000       138.63       412.99       1.0000     
     52     (1,3182)              139.72       0.0000       0.0000       138.57       983.23       1.0000     
     53     (1,3184)              139.56       0.0000       0.0000       138.60       190.08       0.95704    
     54     (1,3181)              139.54       0.0000       0.0000       138.54       886.46       1.0000     
     55     (1,3262)              139.39       0.0000       0.0000       138.57       635.90       0.82195    
     56     (1,3261)              139.36       0.0000       0.0000       138.50       435.46       0.86067    
     57     (1,3263)              139.20       0.0000       0.0000       138.53       955.58       0.67363    
     58     (1,3330)              139.02       0.0000       0.0000       138.56       884.74       0.45735    
     59     (1,3332)              138.96       0.0000       0.0000       138.60       539.14       0.36014    
     60     (1,3329)              138.89       0.0000       0.0000       138.53       447.55       0.35831    
     61     (1,3410)              138.89       0.0000       0.0000       138.57       857.09       0.32295    
     62     (1,3409)              138.84       0.0000       0.0000       138.50       364.61       0.33903    
     63     (1,3411)              138.84       0.0000       0.0000       138.54       627.26       0.30125    
     64     (1,3408)              138.65       0.0000       0.0000       138.46       978.05       0.18531    
     65     (1,3407)              138.58       0.0000       0.0000       138.41       883.01       0.16961    
     66     (1,3404)              138.49       0.0000       0.0000       138.34       903.74       0.15234    
     67     (1,3403)              138.33       0.0000       0.0000       138.28       896.83       4.64626E-02
     68     (1,3400)              138.33       0.0000       0.0000       138.22       910.66       0.11456    
     69     (1,3399)              138.33       0.0000       0.0000       138.16       926.21       0.16876    
     70     (1,3396)              138.33       0.0000       0.0000       138.10       38.016       0.23297    
     71     (1,3479)              138.33       0.0000       0.0000       138.13       926.21       0.19692    
     72     (1,3478)              138.33       0.0000       0.0000       138.07       927.94       0.26337    
     73     (1,3475)              138.33       0.0000       0.0000       138.00       336.96       0.33254    
     74     (1,3477)              138.33       0.0000       0.0000       138.04       585.79       0.28904    
     75     (1,3476)              138.33       0.0000       0.0000       137.99       910.66       0.34169    
     76     (1,3473)              138.33       0.0000       0.0000       137.92       910.66       0.40600    
     77     (1,3472)              138.33       0.0000       0.0000       137.86       321.41       0.47059    
     78     (1,3543)              138.33       0.0000       0.0000       137.91       589.25       0.41857    
     79     (1,3540)              138.33       0.0000       0.0000       137.84       900.29       0.49243    
     80     (1,3539)              138.33       0.0000       0.0000       137.79       927.94       0.53729    
     81     (1,3536)              138.33       0.0000       0.0000       137.72       872.64       0.60655    
     82     (1,3535)              138.33       0.0000       0.0000       137.68       1164.7       0.64976    
     83     (1,3532)              138.33       0.0000       0.0000       137.63       190.08       0.70290    
     84     (1,3467)              138.33       0.0000       0.0000       137.57       1031.6       0.75912    
     85     (1,3466)              138.24       0.0000       0.0000       137.53       190.08       0.71469    
     86     (1,3464)              138.24       0.0000       0.0000       137.48       1031.6       0.75849    
     87     (1,3461)              137.98       0.0000       0.0000       137.42       190.08       0.56246    
     88     (1,3387)              137.98       0.0000       0.0000       137.36       1031.6       0.62006    
     89     (1,3386)              137.56       0.0000       0.0000       137.32       190.08       0.24423    
     90     (1,3384)              137.56       0.0000       0.0000       137.26       1031.6       0.29564    
     91     (1,3381)              137.21       0.0000       0.0000       137.20       190.08       5.85805E-03
     92     (1,3315)              137.21       0.0000       0.0000       137.14       1031.6       7.26749E-02
     93     (1,3314)              137.20       0.0000       0.0000       137.08       190.08       0.11501    
     94     (1,3312)              137.11       0.0000       0.0000       137.02       1099.0       8.90358E-02
     95     (1,3248)              136.90       1.68960E-03  2.0000       136.92       421.63      -2.07090E-02
     96     (1,3245)              136.64       7.88706E-03  2.0000       136.79       644.54      -0.14953    
     97     (1,3243)              136.64       1.40854E-02  2.0000       136.73       981.50      -9.07245E-02
     98     (1,3140)              136.65       1.70131E-02  2.0000       136.72       297.22      -7.28668E-02
     99     (1,3137)              136.65       1.85443E-02  2.0000       136.70       803.52      -5.18551E-02
    100     (1,3132)              136.65       2.01504E-02  2.0000       136.68       983.23      -2.90962E-02
    101     (1,3012)              136.65       2.10221E-02  2.0000       136.66       1054.1      -1.05720E-02
    102     (1,3010)              136.65       2.11688E-02  2.0000       136.64       632.45       6.86272E-03
    103     (1,3011)              136.65       2.13889E-02  2.0000       136.66       1263.2      -1.15585E-02
    104     (1,3017)              136.65       2.21137E-02  2.0000       136.71       336.96      -5.84350E-02
    105     (1,2866)              136.65       2.27977E-02  2.0000       136.67       910.66      -1.46776E-02
    106     (1,2864)              136.65       2.28910E-02  2.0000       136.64       615.17       1.43161E-02
    107     (1,2865)              136.65       2.29581E-02  2.0000       136.68       457.92      -2.64110E-02
    108     (1,2709)              136.65       2.30024E-02  2.0000       136.63       432.00       2.29594E-02
    109     (1,2707)              136.59       2.28489E-02  2.0000       136.60       584.06      -4.09834E-03
    110     (1,2705)              136.51       2.34123E-02  2.0000       136.54       864.00      -2.93702E-02
    111     (1,2606)              136.39       2.51622E-02  2.0000       136.45       934.85      -6.81687E-02
    112     (1,2604)              136.33       2.75150E-02  2.0000       136.40       864.00      -7.25906E-02
    113     (1,2534)              136.33       2.92691E-02  2.0000       136.37       872.64      -4.17100E-02
    114     (1,2532)              136.33       3.02616E-02  2.0000       136.36       867.46      -2.47638E-02
    115     (1,2449)              136.33       3.06249E-02  2.0000       136.33       430.27      -5.69567E-05
    116     (1,2448)              136.33       3.02784E-02  2.0000       136.29       546.05       3.76182E-02
    117     (1,2446)              136.31       2.90748E-02  2.0000       136.26       1021.2       4.84730E-02
    118     (1,2353)              136.31       2.78812E-02  2.0000       136.19       148.61       0.12168    
    119     (1,2350)              136.08       2.80305E-02  2.0000       136.11       943.49      -2.80184E-02
    120     (1,2348)              136.08       2.82686E-02  2.0000       136.05       508.03       2.57000E-02
    121     (1,2347)              136.01       2.79864E-02  2.0000       136.00       565.06       4.93965E-03
    122     (1,2271)              135.93       2.79330E-02  2.0000       135.93       855.36       2.31306E-04
    123     (1,2272)              135.93       2.80925E-02  2.0000       135.97       200.45      -4.55497E-02
    124     (1,2270)              135.93       2.79012E-02  2.0000       135.91       888.19       2.23330E-02
    125     (1,2273)              135.92       2.78432E-02  2.0000       135.94       888.19      -1.86826E-02
    126     (1,2274)              135.92       2.89841E-02  2.0000       135.98       739.58      -6.47752E-02
    127     (1,2185)              135.92       2.97522E-02  2.0000       135.90       205.63       1.70892E-02
    128     (1,2188)              135.91       3.03976E-02  2.0000       135.96       924.48      -4.47976E-02
    129     (1,2186)              135.67       3.34128E-02  2.0000       135.83       907.20      -0.15732    
    130     (1,2093)              135.68       3.75887E-02  2.0000       135.79       1152.6      -0.11376    
    131     (1,2090)              135.60       4.09070E-02  2.0000       135.72       888.19      -0.11433    
    132     (1,2089)              135.60       4.31536E-02  2.0000       135.67       926.21      -6.83936E-02
    133     (1,2086)              135.52       4.51877E-02  2.0000       135.62       910.66      -9.98960E-02
    134     (1,2085)              135.52       4.68415E-02  2.0000       135.60       433.73      -8.75321E-02
    135     (1,2083)              135.49       4.79541E-02  2.0000       135.55       860.54      -5.86930E-02
    136     (1,2080)              135.49       4.87055E-02  2.0000       135.53       229.82      -4.36168E-02
    137     (1,1971)              135.43       4.93681E-02  2.0000       135.47       993.60      -4.41568E-02
    138     (1,1969)              135.41       5.03514E-02  2.0000       135.45       1054.1      -3.51030E-02
    139     (1,1972)              135.41       5.13857E-02  2.0000       135.47       870.91      -5.65050E-02
    140     (1,1973)              135.37       5.32979E-02  2.0000       135.49       974.59      -0.11619    
    141     (1,1976)              135.38       5.52425E-02  2.0000       135.58       273.02      -0.20513    
    142     (1,1836)              135.38       5.75011E-02  2.0000       135.54       903.74      -0.16111    
    143     (1,1831)              135.38       5.92623E-02  2.0000       135.58       77.760      -0.19708    
    144     (1,1833)              135.38       6.02091E-02  2.0000       135.53       494.21      -0.14675    
    145     (1,1828)              135.38       6.19021E-02  2.0000       135.50       746.50      -0.11635    
    146     (1,1684)              135.38       6.34338E-02  2.0000       135.56       342.14      -0.17495    
    147     (1,1683)              135.39       6.50546E-02  2.0000       135.49       914.11      -0.10721    
    148     (1,1680)              135.39       6.67827E-02  2.0000       135.47       914.11      -8.00893E-02
    149     (1,1679)              135.39       6.77453E-02  2.0000       135.47       302.40      -7.75459E-02
    150     (1,1823)              135.35       6.84546E-02  2.0000       135.42       668.74      -7.23322E-02
    151     (1,1820)              135.35       6.93896E-02  2.0000       135.40       969.41      -4.85410E-02
    152     (1,1822)              135.33       7.03150E-02  2.0000       135.38       955.58      -5.04872E-02
    153     (1,1965)              135.33       7.12123E-02  2.0000       135.38       910.66      -4.93705E-02
    154     (1,1967)              135.33       7.22294E-02  2.0000       135.40       931.39      -6.61837E-02
    155     (1,1966)              135.33       7.31863E-02  2.0000       135.38       896.83      -4.41221E-02
    156     (1,1963)              135.28       7.39967E-02  2.0000       135.33       940.03      -4.98211E-02
    157     (1,1962)              135.20       7.49554E-02  2.0000       135.29       648.00      -8.67387E-02
    158     (1,1960)              135.14       7.60161E-02  2.0000       135.28       421.63      -0.13950    
    159     (1,1957)              135.09       7.70746E-02  2.0000       135.22       435.46      -0.13100    
    160     (1,1956)              135.09       7.81198E-02  2.0000       135.21       497.66      -0.11736    
    161     (1,1953)              135.09       7.90981E-02  2.0000       135.22       400.90      -0.12620    
    162     (1,1958)              135.09       8.01908E-02  2.0000       135.21       587.52      -0.12292    
    163     (1,1952)              135.09       8.15580E-02  2.0000       135.18       910.66      -9.11642E-02
    164     (1,1951)              135.09       8.28978E-02  2.0000       135.17       872.64      -8.11373E-02
    165     (1,1948)              135.09       8.40115E-02  2.0000       135.16       865.73      -6.73700E-02
    166     (1,1947)              135.09       8.49500E-02  2.0000       135.15       870.91      -5.90088E-02
    167     (1,1944)              135.10       8.57190E-02  2.0000       135.14       874.37      -4.47232E-02
    168     (1,1943)              135.10       8.63069E-02  2.0000       135.13       865.73      -3.51725E-02
    169     (1,1940)              135.09       8.67485E-02  2.0000       135.11       870.91      -2.52594E-02
    170     (1,1939)              135.06       8.71825E-02  2.0000       135.09       879.55      -3.37980E-02
    171     (1,1936)              135.06       8.75535E-02  2.0000       135.07       881.28      -1.65915E-02
    172     (1,1935)              135.06       8.77152E-02  2.0000       135.06       900.29      -5.27396E-03
    173     (1,1932)              135.06       8.76862E-02  2.0000       135.04       487.30       1.68757E-02
    174     (1,1930)              134.99       8.77327E-02  2.0000       135.02       461.38      -2.99062E-02
    175     (1,1929)              134.99       8.79178E-02  2.0000       135.00       946.94      -8.87665E-03
    176     (1,1926)              134.99       8.79129E-02  2.0000       134.97       589.25       1.52606E-02
    177     (1,1804)              134.98       8.77573E-02  2.0000       134.95       406.08       2.38366E-02
    178     (1,1803)              134.86       8.79648E-02  2.0000       134.89       965.95      -3.58046E-02
    179     (1,1800)              134.86       8.83195E-02  2.0000       134.87       577.15      -1.39811E-02
    180     (1,1798)              134.86       8.84310E-02  2.0000       134.87       428.54      -1.24899E-02
    181     (1,1797)              134.86       8.84388E-02  2.0000       134.85       905.47       4.86180E-03
    182     (1,1794)              134.86       8.82971E-02  2.0000       134.83       539.14       2.35060E-02
    183     (1,1653)              134.86       8.79904E-02  2.0000       134.83       864.00       2.80177E-02
    184     (1,1651)              134.86       8.75015E-02  2.0000       134.81       774.14       4.44403E-02
    185     (1,1654)              134.82       8.72498E-02  2.0000       134.83       502.85      -8.56949E-03
    186     (1,1521)              134.81       8.72615E-02  2.0000       134.80       907.20       3.20567E-03
    187     (1,1519)              134.81       8.71355E-02  2.0000       134.79       883.01       1.37541E-02
    188     (1,1394)              134.81       8.67497E-02  2.0000       134.77       902.02       3.74899E-02
    189     (1,1392)              134.80       8.59436E-02  2.0000       134.73       900.29       6.86405E-02
    190     (1,1266)              134.47       8.62110E-02  2.0000       134.57       927.94      -0.10070    
    191     (1,1264)              134.36       8.79911E-02  2.0000       134.50       853.63      -0.13931    
    192     (1,1261)              134.36       8.90989E-02  2.0000       134.48       122.69      -0.11980    
    193     (1,1153)              134.26       9.02652E-02  2.0000       134.39       991.87      -0.12823    
    194     (1,1151)              134.26       9.19673E-02  2.0000       134.39       628.99      -0.13047    
    195     (1,1150)              134.26       9.29480E-02  2.0000       134.37       361.15      -0.10989    
    196     (1,1063)              134.26       9.39041E-02  2.0000       134.35       979.78      -8.14767E-02
    197     (1,1061)              134.27       9.51211E-02  2.0000       134.35       889.92      -8.25841E-02
    198     (1,968)               134.27       9.58615E-02  2.0000       134.38       186.62      -0.10940    
    199     (1,965)               134.18       9.63167E-02  2.0000       134.30       297.22      -0.12639    
    200     (1,963)               134.18       9.70548E-02  2.0000       134.29       516.67      -0.11001    
    201     (1,960)               134.18       9.80542E-02  2.0000       134.31       546.05      -0.13139    
    202     (1,959)               134.18       9.91944E-02  2.0000       134.27       848.45      -8.96111E-02
    203     (1,878)               134.18       0.10010      2.0000       134.30       354.24      -0.11895    
    204     (1,875)               134.18       0.10088      2.0000       134.26       803.52      -7.50765E-02
    205     (1,873)               134.18       0.10176      2.0000       134.27       608.26      -9.07441E-02
    206     (1,872)               134.18       0.10244      2.0000       134.25       521.86      -6.71590E-02
    207     (1,794)               134.18       0.10314      2.0000       134.25       822.53      -7.12010E-02
    208     (1,791)               134.18       0.10369      2.0000       134.24       252.29      -5.95653E-02
    209     (1,789)               134.18       0.10427      2.0000       134.24       1130.1      -5.52606E-02
    210     (1,712)               134.18       0.10474      2.0000       134.27       12.096      -9.00488E-02
    211     (1,711)               134.19       0.10508      2.0000       134.22       1138.8      -3.92297E-02
    212     (1,709)               134.19       0.10548      2.0000       134.25       169.34      -6.10202E-02
    213     (1,706)               134.19       0.10567      2.0000       134.20       927.94      -1.63318E-02
    214     (1,630)               134.10       0.10610      2.0000       134.19       483.84      -8.99455E-02
    215     (1,629)               134.10       0.10666      2.0000       134.15       578.88      -5.50410E-02
    216     (1,627)               134.10       0.10720      2.0000       134.15       855.36      -5.04353E-02
    217     (1,624)               134.10       0.10759      2.0000       134.13       361.15      -2.74751E-02
    218     (1,549)               134.10       0.10772      2.0000       134.11       936.58      -7.97397E-03
    219     (1,547)               133.93       0.10838      2.0000       134.06       627.26      -0.13288    
    220     (1,546)               133.93       0.10966      2.0000       134.03       976.32      -9.67784E-02
    221     (1,543)               133.93       0.11035      2.0000       134.04       15.552      -0.10573    
    222     (1,469)               133.93       0.11089      2.0000       134.00       1042.0      -7.06071E-02
    223     (1,467)               133.93       0.11191      2.0000       134.00       1024.7      -6.90549E-02
    224     (1,394)               133.93       0.11270      2.0000       134.04       388.80      -0.10332    
    225     (1,393)               133.93       0.11340      2.0000       134.00       927.94      -6.37360E-02
    226     (1,390)               133.93       0.11411      2.0000       133.98       889.92      -4.74954E-02
    227     (1,389)               133.93       0.11466      2.0000       133.97       919.30      -4.00173E-02
    228     (1,387)               133.93       0.11499      2.0000       134.00       160.70      -6.16090E-02
    229     (1,384)               133.94       0.11531      2.0000       133.97       1038.5      -3.54845E-02
    230     (1,383)               133.94       0.11564      2.0000       133.97       326.59      -3.03348E-02
    231     (1,302)               133.94       0.11587      2.0000       133.97       701.57      -3.38986E-02
    232     (1,299)               133.94       0.11615      2.0000       133.95       907.20      -1.78325E-02
    233     (1,297)               133.94       0.11628      2.0000       133.97       119.23      -2.93699E-02
    234     (1,296)               133.94       0.11639      2.0000       133.95       921.02      -1.24291E-02
    235     (1,293)               133.94       0.11645      2.0000       133.93       884.74       2.80314E-03
    236     (1,292)               133.94       0.11634      2.0000       133.92       908.93       1.43115E-02
    237     (1,289)               133.94       0.11622      2.0000       133.89       114.05       4.27858E-02
    238     (1,250)               133.94       0.11596      2.0000       133.89       789.70       4.13138E-02
    239     (1,249)               133.94       0.11522      2.0000       133.86       979.78       7.50788E-02
    240     (1,246)               133.70       0.11482      2.0000       133.75       387.07      -4.15401E-02
    241     (1,244)               133.63       0.11521      2.0000       133.69       644.54      -6.22663E-02
    242     (1,243)               133.40       0.11649      2.0000       133.58       786.24      -0.18290    
    243     (1,209)               133.40       0.11797      2.0000       133.58       402.62      -0.17759    
    244     (1,206)               133.40       0.11915      2.0000       133.52       819.07      -0.12365    
    245     (1,204)               133.40       0.12021      2.0000       133.54       402.62      -0.13761    
    246     (1,203)               133.40       0.12116      2.0000       133.50       819.07      -0.10351    
    247     (1,171)               133.40       0.12205      2.0000       133.53       399.17      -0.12300    
    248     (1,168)               133.40       0.12297      2.0000       133.49       1017.8      -8.69947E-02
    249     (1,166)               133.40       0.12361      2.0000       133.53       57.024      -0.13007    
    250     (1,165)               133.40       0.12428      2.0000       133.48       1164.7      -7.97913E-02
    251     (1,135)               133.40       0.12494      2.0000       133.53       57.024      -0.12810    
    252     (1,132)               133.41       0.12555      2.0000       133.48       1164.7      -7.39602E-02
    253     (1,130)               133.41       0.12616      2.0000       133.53       57.024      -0.11938    
    254     (1,129)               133.41       0.12674      2.0000       133.48       1164.7      -7.03509E-02
    255     (1,101)               133.41       0.12732      2.0000       133.53       57.024      -0.11773    
    256     (1,98)                133.41       0.12788      2.0000       133.48       1164.7      -6.74794E-02
    257     (1,96)                133.41       0.12843      2.0000       133.52       57.024      -0.11174    
    258     (1,95)                133.41       0.12896      2.0000       133.47       1164.7      -6.48799E-02
    259     (1,69)                133.41       0.12948      2.0000       133.52       57.024      -0.11186    
    260     (1,66)                133.41       0.12999      2.0000       133.47       1178.5      -6.11347E-02
    261     (1,65)                133.41       0.13047      2.0000       133.49       48.384      -7.69918E-02
    262     (1,63)                133.40       0.13093      2.0000       133.46       1061.0      -6.39583E-02
    263     (1,60)                133.40       0.13148      2.0000       133.46       288.58      -6.09599E-02
    264     (1,36)                133.28       0.13236      2.0000       133.41       934.85      -0.12952    
    265     (1,35)                133.28       0.13345      2.0000       133.43       357.70      -0.14436    
    266     (1,33)                133.28       0.13439      2.0000       133.42       708.48      -0.13875    
    267     (1,30)                133.29       0.13560      2.0000       133.43       634.18      -0.14786    
    268     (1,8)                 133.29       0.13687      2.0000       133.47       589.25      -0.18743    
    269     (1,7)                 133.29       0.13836      2.0000       133.50       634.18      -0.20699    
    270     (1,5)                 133.29       0.13931      2.0000       133.62       69.120      -0.32937    
 -------------------------------------------------------------------------------------------------------------



 SFR PACKAGE - SUMMARY OF FLOWS FOR EACH CONTROL VOLUME   PERIOD      2   STEP       48
 ------------------------------------------------------------------------------------------------------------------------------------------------------------------------------
                                                                                                                                                                     PERCENT   
   NUMBER   CELLID                  INFLOW      OUTFLOW        GWF        RAINFALL   EVAPORATION     RUNOFF     EXT INFLOW  EXT OUTFLOW    STORAGE      IN - OUT    DIFFERENCE 
 ------------------------------------------------------------------------------------------------------------------------------------------------------------------------------
     1      (1,3210)              0.0000       0.0000       0.0000       0.0000       0.0000       0.0000       0.0000       0.0000       0.0000       0.0000       0.0000     
     2      (1,3208)              0.0000       0.0000       0.0000       0.0000       0.0000       0.0000       0.0000       0.0000       0.0000       0.0000       0.0000     
     3      (1,3206)              0.0000       0.0000       0.0000       0.0000       0.0000       0.0000       0.0000       0.0000       0.0000       0.0000       0.0000     
     4      (1,3205)              0.0000       0.0000       0.0000       0.0000       0.0000       0.0000       0.0000       0.0000       0.0000       0.0000       0.0000     
     5      (1,3202)              0.0000       0.0000       0.0000       0.0000       0.0000       0.0000       0.0000       0.0000       0.0000       0.0000       0.0000     
     6      (1,3094)              0.0000       0.0000       0.0000       0.0000       0.0000       0.0000       0.0000       0.0000       0.0000       0.0000       0.0000     
     7      (1,3093)              0.0000       0.0000       0.0000       0.0000       0.0000       0.0000       0.0000       0.0000       0.0000       0.0000       0.0000     
     8      (1,3090)              0.0000       0.0000       0.0000       0.0000       0.0000       0.0000       0.0000       0.0000       0.0000       0.0000       0.0000     
     9      (1,3088)              0.0000       0.0000       0.0000       0.0000       0.0000       0.0000       0.0000       0.0000       0.0000       0.0000       0.0000     
     10     (1,3087)              0.0000       0.0000       0.0000       0.0000       0.0000       0.0000       0.0000       0.0000       0.0000       0.0000       0.0000     
     11     (1,2975)              0.0000       0.0000       0.0000       0.0000       0.0000       0.0000       0.0000       0.0000       0.0000       0.0000       0.0000     
     12     (1,2972)              0.0000       0.0000       0.0000       0.0000       0.0000       0.0000       0.0000       0.0000       0.0000       0.0000       0.0000     
     13     (1,2970)              0.0000       0.0000       0.0000       0.0000       0.0000       0.0000       0.0000       0.0000       0.0000       0.0000       0.0000     
     14     (1,2969)              0.0000       0.0000       0.0000       0.0000       0.0000       0.0000       0.0000       0.0000       0.0000       0.0000       0.0000     
     15     (1,2817)              0.0000       0.0000       0.0000       0.0000       0.0000       0.0000       0.0000       0.0000       0.0000       0.0000       0.0000     
     16     (1,2814)              0.0000       0.0000       0.0000       0.0000       0.0000       0.0000       0.0000       0.0000       0.0000       0.0000       0.0000     
     17     (1,2813)              0.0000       0.0000       0.0000       0.0000       0.0000       0.0000       0.0000       0.0000       0.0000       0.0000       0.0000     
     18     (1,2965)              0.0000       0.0000       0.0000       0.0000       0.0000       0.0000       0.0000       0.0000       0.0000       0.0000       0.0000     
     19     (1,2962)              0.0000       0.0000       0.0000       0.0000       0.0000       0.0000       0.0000       0.0000       0.0000       0.0000       0.0000     
     20     (1,2961)              0.0000       0.0000       0.0000       0.0000       0.0000       0.0000       0.0000       0.0000       0.0000       0.0000       0.0000     
     21     (1,2809)              0.0000       0.0000       0.0000       0.0000       0.0000       0.0000       0.0000       0.0000       0.0000       0.0000       0.0000     
     22     (1,2806)              0.0000       0.0000       0.0000       0.0000       0.0000       0.0000       0.0000       0.0000       0.0000       0.0000       0.0000     
     23     (1,2805)              0.0000       0.0000       0.0000       0.0000       0.0000       0.0000       0.0000       0.0000       0.0000       0.0000       0.0000     
     24     (1,2802)              0.0000       0.0000       0.0000       0.0000       0.0000       0.0000       0.0000       0.0000       0.0000       0.0000       0.0000     
     25     (1,2801)              0.0000       0.0000       0.0000       0.0000       0.0000       0.0000       0.0000       0.0000       0.0000       0.0000       0.0000     
     26     (1,2799)              0.0000       0.0000       0.0000       0.0000       0.0000       0.0000       0.0000       0.0000       0.0000       0.0000       0.0000     
     27     (1,2796)              0.0000       0.0000       0.0000       0.0000       0.0000       0.0000       0.0000       0.0000       0.0000       0.0000       0.0000     
     28     (1,2795)              0.0000       0.0000       0.0000       0.0000       0.0000       0.0000       0.0000       0.0000       0.0000       0.0000       0.0000     
     29     (1,2792)              0.0000       0.0000       0.0000       0.0000       0.0000       0.0000       0.0000       0.0000       0.0000       0.0000       0.0000     
     30     (1,2791)              0.0000       0.0000       0.0000       0.0000       0.0000       0.0000       0.0000       0.0000       0.0000       0.0000       0.0000     
     31     (1,2788)              0.0000       0.0000       0.0000       0.0000       0.0000       0.0000       0.0000       0.0000       0.0000       0.0000       0.0000     
     32     (1,2790)              0.0000       0.0000       0.0000       0.0000       0.0000       0.0000       0.0000       0.0000       0.0000       0.0000       0.0000     
     33     (1,2789)              0.0000       0.0000       0.0000       0.0000       0.0000       0.0000       0.0000       0.0000       0.0000       0.0000       0.0000     
     34     (1,2786)              0.0000       0.0000       0.0000       0.0000       0.0000       0.0000       0.0000       0.0000       0.0000       0.0000       0.0000     
     35     (1,2785)              0.0000       0.0000       0.0000       0.0000       0.0000       0.0000       0.0000       0.0000       0.0000       0.0000       0.0000     
     36     (1,2952)              0.0000       0.0000       0.0000       0.0000       0.0000       0.0000       0.0000       0.0000       0.0000       0.0000       0.0000     
     37     (1,2949)              0.0000       0.0000       0.0000       0.0000       0.0000       0.0000       0.0000       0.0000       0.0000       0.0000       0.0000     
     38     (1,2948)              0.0000       0.0000       0.0000       0.0000       0.0000       0.0000       0.0000       0.0000       0.0000       0.0000       0.0000     
     39     (1,2945)              0.0000       0.0000       0.0000       0.0000       0.0000       0.0000       0.0000       0.0000       0.0000       0.0000       0.0000     
     40     (1,2944)              0.0000       0.0000       0.0000       0.0000       0.0000       0.0000       0.0000       0.0000       0.0000       0.0000       0.0000     
     41     (1,2946)              0.0000       0.0000       0.0000       0.0000       0.0000       0.0000       0.0000       0.0000       0.0000       0.0000       0.0000     
     42     (1,2943)              0.0000       0.0000       0.0000       0.0000       0.0000       0.0000       0.0000       0.0000       0.0000       0.0000       0.0000     
     43     (1,2942)              0.0000       0.0000       0.0000       0.0000       0.0000       0.0000       0.0000       0.0000       0.0000       0.0000       0.0000     
     44     (1,2939)              0.0000       0.0000       0.0000       0.0000       0.0000       0.0000       0.0000       0.0000       0.0000       0.0000       0.0000     
     45     (1,2938)              0.0000       0.0000       0.0000       0.0000       0.0000       0.0000       0.0000       0.0000       0.0000       0.0000       0.0000     
     46     (1,3071)              0.0000       0.0000       0.0000       0.0000       0.0000       0.0000       0.0000       0.0000       0.0000       0.0000       0.0000     
     47     (1,3068)              0.0000       0.0000       0.0000       0.0000       0.0000       0.0000       0.0000       0.0000       0.0000       0.0000       0.0000     
     48     (1,3067)              0.0000       0.0000       0.0000       0.0000       0.0000       0.0000       0.0000       0.0000       0.0000       0.0000       0.0000     
     49     (1,3069)              0.0000       0.0000       0.0000       0.0000       0.0000       0.0000       0.0000       0.0000       0.0000       0.0000       0.0000     
     50     (1,3066)              0.0000       0.0000       0.0000       0.0000       0.0000       0.0000       0.0000       0.0000       0.0000       0.0000       0.0000     
     51     (1,3183)              0.0000       0.0000       0.0000       0.0000       0.0000       0.0000       0.0000       0.0000       0.0000       0.0000       0.0000     
     52     (1,3182)              0.0000       0.0000       0.0000       0.0000       0.0000       0.0000       0.0000       0.0000       0.0000       0.0000       0.0000     
     53     (1,3184)              0.0000       0.0000       0.0000       0.0000       0.0000       0.0000       0.0000       0.0000       0.0000       0.0000       0.0000     
     54     (1,3181)              0.0000       0.0000       0.0000       0.0000       0.0000       0.0000       0.0000       0.0000       0.0000       0.0000       0.0000     
     55     (1,3262)              0.0000       0.0000       0.0000       0.0000       0.0000       0.0000       0.0000       0.0000       0.0000       0.0000       0.0000     
     56     (1,3261)              0.0000       0.0000       0.0000       0.0000       0.0000       0.0000       0.0000       0.0000       0.0000       0.0000       0.0000     
     57     (1,3263)              0.0000       0.0000       0.0000       0.0000       0.0000       0.0000       0.0000       0.0000       0.0000       0.0000       0.0000     
     58     (1,3330)              0.0000       0.0000       0.0000       0.0000       0.0000       0.0000       0.0000       0.0000       0.0000       0.0000       0.0000     
     59     (1,3332)              0.0000       0.0000       0.0000       0.0000       0.0000       0.0000       0.0000       0.0000       0.0000       0.0000       0.0000     
     60     (1,3329)              0.0000       0.0000       0.0000       0.0000       0.0000       0.0000       0.0000       0.0000       0.0000       0.0000       0.0000     
     61     (1,3410)              0.0000       0.0000       0.0000       0.0000       0.0000       0.0000       0.0000       0.0000       0.0000       0.0000       0.0000     
     62     (1,3409)              0.0000       0.0000       0.0000       0.0000       0.0000       0.0000       0.0000       0.0000       0.0000       0.0000       0.0000     
     63     (1,3411)              0.0000       0.0000       0.0000       0.0000       0.0000       0.0000       0.0000       0.0000       0.0000       0.0000       0.0000     
     64     (1,3408)              0.0000       0.0000       0.0000       0.0000       0.0000       0.0000       0.0000       0.0000       0.0000       0.0000       0.0000     
     65     (1,3407)              0.0000       0.0000       0.0000       0.0000       0.0000       0.0000       0.0000       0.0000       0.0000       0.0000       0.0000     
     66     (1,3404)              0.0000       0.0000       0.0000       0.0000       0.0000       0.0000       0.0000       0.0000       0.0000       0.0000       0.0000     
     67     (1,3403)              0.0000       0.0000       0.0000       0.0000       0.0000       0.0000       0.0000       0.0000       0.0000       0.0000       0.0000     
     68     (1,3400)              0.0000       0.0000       0.0000       0.0000       0.0000       0.0000       0.0000       0.0000       0.0000       0.0000       0.0000     
     69     (1,3399)              0.0000       0.0000       0.0000       0.0000       0.0000       0.0000       0.0000       0.0000       0.0000       0.0000       0.0000     
     70     (1,3396)              0.0000       0.0000       0.0000       0.0000       0.0000       0.0000       0.0000       0.0000       0.0000       0.0000       0.0000     
     71     (1,3479)              0.0000       0.0000       0.0000       0.0000       0.0000       0.0000       0.0000       0.0000       0.0000       0.0000       0.0000     
     72     (1,3478)              0.0000       0.0000       0.0000       0.0000       0.0000       0.0000       0.0000       0.0000       0.0000       0.0000       0.0000     
     73     (1,3475)              0.0000       0.0000       0.0000       0.0000       0.0000       0.0000       0.0000       0.0000       0.0000       0.0000       0.0000     
     74     (1,3477)              0.0000       0.0000       0.0000       0.0000       0.0000       0.0000       0.0000       0.0000       0.0000       0.0000       0.0000     
     75     (1,3476)              0.0000       0.0000       0.0000       0.0000       0.0000       0.0000       0.0000       0.0000       0.0000       0.0000       0.0000     
     76     (1,3473)              0.0000       0.0000       0.0000       0.0000       0.0000       0.0000       0.0000       0.0000       0.0000       0.0000       0.0000     
     77     (1,3472)              0.0000       0.0000       0.0000       0.0000       0.0000       0.0000       0.0000       0.0000       0.0000       0.0000       0.0000     
     78     (1,3543)              0.0000       0.0000       0.0000       0.0000       0.0000       0.0000       0.0000       0.0000       0.0000       0.0000       0.0000     
     79     (1,3540)              0.0000       0.0000       0.0000       0.0000       0.0000       0.0000       0.0000       0.0000       0.0000       0.0000       0.0000     
     80     (1,3539)              0.0000       0.0000       0.0000       0.0000       0.0000       0.0000       0.0000       0.0000       0.0000       0.0000       0.0000     
     81     (1,3536)              0.0000       0.0000       0.0000       0.0000       0.0000       0.0000       0.0000       0.0000       0.0000       0.0000       0.0000     
     82     (1,3535)              0.0000       0.0000       0.0000       0.0000       0.0000       0.0000       0.0000       0.0000       0.0000       0.0000       0.0000     
     83     (1,3532)              0.0000       0.0000       0.0000       0.0000       0.0000       0.0000       0.0000       0.0000       0.0000       0.0000       0.0000     
     84     (1,3467)              0.0000       0.0000       0.0000       0.0000       0.0000       0.0000       0.0000       0.0000       0.0000       0.0000       0.0000     
     85     (1,3466)              0.0000       0.0000       0.0000       0.0000       0.0000       0.0000       0.0000       0.0000       0.0000       0.0000       0.0000     
     86     (1,3464)              0.0000       0.0000       0.0000       0.0000       0.0000       0.0000       0.0000       0.0000       0.0000       0.0000       0.0000     
     87     (1,3461)              0.0000       0.0000       0.0000       0.0000       0.0000       0.0000       0.0000       0.0000       0.0000       0.0000       0.0000     
     88     (1,3387)              0.0000       0.0000       0.0000       0.0000       0.0000       0.0000       0.0000       0.0000       0.0000       0.0000       0.0000     
     89     (1,3386)              0.0000       0.0000       0.0000       0.0000       0.0000       0.0000       0.0000       0.0000       0.0000       0.0000       0.0000     
     90     (1,3384)              0.0000       0.0000       0.0000       0.0000       0.0000       0.0000       0.0000       0.0000       0.0000       0.0000       0.0000     
     91     (1,3381)              0.0000       0.0000       0.0000       0.0000       0.0000       0.0000       0.0000       0.0000       0.0000       0.0000       0.0000     
     92     (1,3315)              0.0000       0.0000       0.0000       0.0000       0.0000       0.0000       0.0000       0.0000       0.0000       0.0000       0.0000     
     93     (1,3314)              0.0000       0.0000       0.0000       0.0000       0.0000       0.0000       0.0000       0.0000       0.0000       0.0000       0.0000     
     94     (1,3312)              0.0000       0.0000       0.0000       0.0000       0.0000       0.0000       0.0000       0.0000       0.0000       0.0000       0.0000     
     95     (1,3248)              0.0000      -8.7316       8.7316       0.0000       0.0000       0.0000       0.0000       0.0000       0.0000       0.0000       0.0000     
     96     (1,3245)              8.7316      -105.11       96.381       0.0000       0.0000       0.0000       0.0000       0.0000       0.0000       0.0000       0.0000     
     97     (1,3243)              105.11      -194.16       89.046       0.0000       0.0000       0.0000       0.0000       0.0000       0.0000       0.0000       0.0000     
     98     (1,3140)              194.16      -215.82       21.657       0.0000       0.0000       0.0000       0.0000       0.0000       0.0000       0.0000       0.0000     
     99     (1,3137)              215.82      -257.48       41.667       0.0000       0.0000       0.0000       0.0000       0.0000       0.0000       0.0000       0.0000     
    100     (1,3132)              257.48      -286.09       28.608       0.0000       0.0000       0.0000       0.0000       0.0000       0.0000       0.0000       0.0000     
    101     (1,3012)              286.09      -297.24       11.144       0.0000       0.0000       0.0000       0.0000       0.0000       0.0000       0.0000       0.0000     
    102     (1,3010)              297.24      -292.89      -4.3403       0.0000       0.0000       0.0000       0.0000       0.0000       0.0000       0.0000       0.0000     
    103     (1,3011)              292.89      -307.50       14.600       0.0000       0.0000       0.0000       0.0000       0.0000       0.0000       0.0000       0.0000     
    104     (1,3017)              307.50      -327.19       19.690       0.0000       0.0000       0.0000       0.0000       0.0000       0.0000       0.0000       0.0000     
    105     (1,2866)              327.19      -340.55       13.366       0.0000       0.0000       0.0000       0.0000       0.0000       0.0000       0.0000       0.0000     
    106     (1,2864)              340.55      -331.74      -8.8068       0.0000       0.0000       0.0000       0.0000       0.0000       0.0000       0.0000       0.0000     
    107     (1,2865)              331.74      -343.84       12.094       0.0000       0.0000       0.0000       0.0000       0.0000       0.0000       0.0000       0.0000     
    108     (1,2709)              343.84      -333.92      -9.9185       0.0000       0.0000       0.0000       0.0000       0.0000       0.0000       0.0000       0.0000     
    109     (1,2707)              333.92      -336.31       2.3937       0.0000       0.0000       0.0000       0.0000       0.0000       0.0000       0.0000       0.0000     
    110     (1,2705)              336.31      -361.69       25.376       0.0000       0.0000       0.0000       0.0000       0.0000       0.0000       0.0000       0.0000     
    111     (1,2606)              361.69      -425.42       63.727       0.0000       0.0000       0.0000       0.0000       0.0000       0.0000       0.0000       0.0000     
    112     (1,2604)              425.42      -488.14       62.718       0.0000       0.0000       0.0000       0.0000       0.0000       0.0000       0.0000       0.0000     
    113     (1,2534)              488.14      -524.53       36.398       0.0000       0.0000       0.0000       0.0000       0.0000       0.0000       0.0000       0.0000     
    114     (1,2532)              524.53      -546.02       21.481       0.0000       0.0000       0.0000       0.0000       0.0000       0.0000       0.0000       0.0000     
    115     (1,2449)              546.02      -546.04       2.45069E-02  0.0000       0.0000       0.0000       0.0000       0.0000       0.0000       0.0000       0.0000     
    116     (1,2448)              546.04      -525.50      -20.541       0.0000       0.0000       0.0000       0.0000       0.0000       0.0000       0.0000       0.0000     
    117     (1,2446)              525.50      -476.00      -49.503       0.0000       0.0000       0.0000       0.0000       0.0000       0.0000       0.0000       0.0000     
    118     (1,2353)              476.00      -457.91      -18.083       0.0000       0.0000       0.0000       0.0000       0.0000       0.0000       0.0000       0.0000     
    119     (1,2350)              457.91      -484.35       26.435       0.0000       0.0000       0.0000       0.0000       0.0000       0.0000       0.0000       0.0000     
    120     (1,2348)              484.35      -471.29      -13.056       0.0000       0.0000       0.0000       0.0000       0.0000       0.0000       0.0000       0.0000     
    121     (1,2347)              471.29      -468.50      -2.7912       0.0000       0.0000       0.0000       0.0000       0.0000       0.0000       0.0000       0.0000     
    122     (1,2271)              468.50      -468.30      -0.19785      0.0000       0.0000       0.0000       0.0000       0.0000       0.0000       0.0000       0.0000     
    123     (1,2272)              468.30      -477.43       9.1303       0.0000       0.0000       0.0000       0.0000       0.0000       0.0000       0.0000       0.0000     
    124     (1,2270)              477.43      -457.60      -19.836       0.0000       0.0000       0.0000       0.0000       0.0000       0.0000       0.0000       0.0000     
    125     (1,2273)              457.60      -474.19       16.594       0.0000       0.0000       0.0000       0.0000       0.0000       0.0000       0.0000       0.0000     
    126     (1,2274)              474.19      -522.10       47.907       0.0000       0.0000       0.0000       0.0000       0.0000       0.0000       0.0000       0.0000     
    127     (1,2185)              522.10      -518.58      -3.5141       0.0000       0.0000       0.0000       0.0000       0.0000       0.0000       0.0000       0.0000     
    128     (1,2188)              518.58      -560.00       41.414       0.0000       0.0000       0.0000       0.0000       0.0000       0.0000       0.0000       0.0000     
    129     (1,2186)              560.00      -702.72       142.72       0.0000       0.0000       0.0000       0.0000       0.0000       0.0000       0.0000       0.0000     
    130     (1,2093)              702.72      -833.83       131.11       0.0000       0.0000       0.0000       0.0000       0.0000       0.0000       0.0000       0.0000     
    131     (1,2090)              833.83      -935.38       101.55       0.0000       0.0000       0.0000       0.0000       0.0000       0.0000       0.0000       0.0000     
    132     (1,2089)              935.38      -998.73       63.347       0.0000       0.0000       0.0000       0.0000       0.0000       0.0000       0.0000       0.0000     
    133     (1,2086)              998.73      -1089.7       90.971       0.0000       0.0000       0.0000       0.0000       0.0000       0.0000       0.0000       0.0000     
    134     (1,2085)              1089.7      -1127.7       37.965       0.0000       0.0000       0.0000       0.0000       0.0000       0.0000       0.0000       0.0000     
    135     (1,2083)              1127.7      -1178.2       50.508       0.0000       0.0000       0.0000       0.0000       0.0000       0.0000       0.0000       0.0000     
    136     (1,2080)              1178.2      -1188.2       10.024       0.0000       0.0000       0.0000       0.0000       0.0000       0.0000       0.0000       0.0000     
    137     (1,1971)              1188.2      -1232.1       43.874       0.0000       0.0000       0.0000       0.0000       0.0000       0.0000       0.0000       0.0000     
    138     (1,1969)              1232.1      -1269.1       37.001       0.0000       0.0000       0.0000       0.0000       0.0000       0.0000       0.0000       0.0000     
    139     (1,1972)              1269.1      -1318.3       49.211       0.0000       0.0000       0.0000       0.0000       0.0000       0.0000       0.0000       0.0000     
    140     (1,1973)              1318.3      -1431.5       113.24       0.0000       0.0000       0.0000       0.0000       0.0000       0.0000       0.0000       0.0000     
    141     (1,1976)              1431.5      -1487.5       56.006       0.0000       0.0000       0.0000       0.0000       0.0000       0.0000       0.0000       0.0000     
    142     (1,1836)              1487.5      -1633.1       145.60       0.0000       0.0000       0.0000       0.0000       0.0000       0.0000       0.0000       0.0000     
    143     (1,1831)              1633.1      -1648.5       15.325       0.0000       0.0000       0.0000       0.0000       0.0000       0.0000       0.0000       0.0000     
    144     (1,1833)              1648.5      -1721.0       72.527       0.0000       0.0000       0.0000       0.0000       0.0000       0.0000       0.0000       0.0000     
    145     (1,1828)              1721.0      -1807.8       86.857       0.0000       0.0000       0.0000       0.0000       0.0000       0.0000       0.0000       0.0000     
    146     (1,1684)              1807.8      -1867.7       59.858       0.0000       0.0000       0.0000       0.0000       0.0000       0.0000       0.0000       0.0000     
    147     (1,1683)              1867.7      -1965.7       98.002       0.0000       0.0000       0.0000       0.0000       0.0000       0.0000       0.0000       0.0000     
    148     (1,1680)              1965.7      -2038.9       73.211       0.0000       0.0000       0.0000       0.0000       0.0000       0.0000       0.0000       0.0000     
    149     (1,1679)              2038.9      -2062.4       23.450       0.0000       0.0000       0.0000       0.0000       0.0000       0.0000       0.0000       0.0000     
    150     (1,1823)              2062.4      -2110.7       48.371       0.0000       0.0000       0.0000       0.0000       0.0000       0.0000       0.0000       0.0000     
    151     (1,1820)              2110.7      -2157.8       47.056       0.0000       0.0000       0.0000       0.0000       0.0000       0.0000       0.0000       0.0000     
    152     (1,1822)              2157.8      -2206.0       48.245       0.0000       0.0000       0.0000       0.0000       0.0000       0.0000       0.0000       0.0000     
    153     (1,1965)              2206.0      -2251.0       44.960       0.0000       0.0000       0.0000       0.0000       0.0000       0.0000       0.0000       0.0000     
    154     (1,1967)              2251.0      -2312.6       61.643       0.0000       0.0000       0.0000       0.0000       0.0000       0.0000       0.0000       0.0000     
    155     (1,1966)              2312.6      -2352.2       39.570       0.0000       0.0000       0.0000       0.0000       0.0000       0.0000       0.0000       0.0000     
    156     (1,1963)              2352.2      -2399.0       46.833       0.0000       0.0000       0.0000       0.0000       0.0000       0.0000       0.0000       0.0000     
    157     (1,1962)              2399.0      -2455.2       56.207       0.0000       0.0000       0.0000       0.0000       0.0000       0.0000       0.0000       0.0000     
    158     (1,1960)              2455.2      -2514.1       58.817       0.0000       0.0000       0.0000       0.0000       0.0000       0.0000       0.0000       0.0000     
    159     (1,1957)              2514.1      -2571.1       57.044       0.0000       0.0000       0.0000       0.0000       0.0000       0.0000       0.0000       0.0000     
    160     (1,1956)              2571.1      -2629.5       58.406       0.0000       0.0000       0.0000       0.0000       0.0000       0.0000       0.0000       0.0000     
    161     (1,1953)              2629.5      -2680.1       50.593       0.0000       0.0000       0.0000       0.0000       0.0000       0.0000       0.0000       0.0000     
    162     (1,1958)              2680.1      -2752.3       72.221       0.0000       0.0000       0.0000       0.0000       0.0000       0.0000       0.0000       0.0000     
    163     (1,1952)              2752.3      -2835.3       83.019       0.0000       0.0000       0.0000       0.0000       0.0000       0.0000       0.0000       0.0000     
    164     (1,1951)              2835.3      -2906.1       70.804       0.0000       0.0000       0.0000       0.0000       0.0000       0.0000       0.0000       0.0000     
    165     (1,1948)              2906.1      -2964.5       58.324       0.0000       0.0000       0.0000       0.0000       0.0000       0.0000       0.0000       0.0000     
    166     (1,1947)              2964.5      -3015.9       51.392       0.0000       0.0000       0.0000       0.0000       0.0000       0.0000       0.0000       0.0000     
    167     (1,1944)              3015.9      -3055.0       39.105       0.0000       0.0000       0.0000       0.0000       0.0000       0.0000       0.0000       0.0000     
    168     (1,1943)              3055.0      -3085.4       30.450       0.0000       0.0000       0.0000       0.0000       0.0000       0.0000       0.0000       0.0000     
    169     (1,1940)              3085.4      -3107.4       21.999       0.0000       0.0000       0.0000       0.0000       0.0000       0.0000       0.0000       0.0000     
    170     (1,1939)              3107.4      -3137.1       29.727       0.0000       0.0000       0.0000       0.0000       0.0000       0.0000       0.0000       0.0000     
    171     (1,1936)              3137.1      -3151.8       14.622       0.0000       0.0000       0.0000       0.0000       0.0000       0.0000       0.0000       0.0000     
    172     (1,1935)              3151.8      -3156.5       4.7481       0.0000       0.0000       0.0000       0.0000       0.0000       0.0000       0.0000       0.0000     
    173     (1,1932)              3156.5      -3148.3      -8.2235       0.0000       0.0000       0.0000       0.0000       0.0000       0.0000       0.0000       0.0000     
    174     (1,1930)              3148.3      -3162.1       13.798       0.0000       0.0000       0.0000       0.0000       0.0000       0.0000       0.0000       0.0000     
    175     (1,1929)              3162.1      -3170.5       8.4057       0.0000       0.0000       0.0000       0.0000       0.0000       0.0000       0.0000       0.0000     
    176     (1,1926)              3170.5      -3161.5      -8.9923       0.0000       0.0000       0.0000       0.0000       0.0000       0.0000       0.0000       0.0000     
    177     (1,1804)              3161.5      -3151.8      -9.6796       0.0000       0.0000       0.0000       0.0000       0.0000       0.0000       0.0000       0.0000     
    178     (1,1803)              3151.8      -3186.4       34.586       0.0000       0.0000       0.0000       0.0000       0.0000       0.0000       0.0000       0.0000     
    179     (1,1800)              3186.4      -3194.5       8.0692       0.0000       0.0000       0.0000       0.0000       0.0000       0.0000       0.0000       0.0000     
    180     (1,1798)              3194.5      -3199.8       5.3525       0.0000       0.0000       0.0000       0.0000       0.0000       0.0000       0.0000       0.0000     
    181     (1,1797)              3199.8      -3195.4      -4.4022       0.0000       0.0000       0.0000       0.0000       0.0000       0.0000       0.0000       0.0000     
    182     (1,1794)              3195.4      -3182.8      -12.673       0.0000       0.0000       0.0000       0.0000       0.0000       0.0000       0.0000       0.0000     
    183     (1,1653)              3182.8      -3158.5      -24.207       0.0000       0.0000       0.0000       0.0000       0.0000       0.0000       0.0000       0.0000     
    184     (1,1651)              3158.5      -3124.1      -34.403       0.0000       0.0000       0.0000       0.0000       0.0000       0.0000       0.0000       0.0000     
    185     (1,1654)              3124.1      -3128.4       4.3091       0.0000       0.0000       0.0000       0.0000       0.0000       0.0000       0.0000       0.0000     
    186     (1,1521)              3128.4      -3125.5      -2.9082       0.0000       0.0000       0.0000       0.0000       0.0000       0.0000       0.0000       0.0000     
    187     (1,1519)              3125.5      -3113.4      -12.145       0.0000       0.0000       0.0000       0.0000       0.0000       0.0000       0.0000       0.0000     
    188     (1,1394)              3113.4      -3079.6      -33.816       0.0000       0.0000       0.0000       0.0000       0.0000       0.0000       0.0000       0.0000     
    189     (1,1392)              3079.6      -3017.8      -61.796       0.0000       0.0000       0.0000       0.0000       0.0000       0.0000       0.0000       0.0000     
    190     (1,1266)              3017.8      -3111.2       93.442       0.0000       0.0000       0.0000       0.0000       0.0000       0.0000       0.0000       0.0000     
    191     (1,1264)              3111.2      -3230.1       118.92       0.0000       0.0000       0.0000       0.0000       0.0000       0.0000       0.0000       0.0000     
    192     (1,1261)              3230.1      -3244.8       14.698       0.0000       0.0000       0.0000       0.0000       0.0000       0.0000       0.0000       0.0000     
    193     (1,1153)              3244.8      -3372.0       127.19       0.0000       0.0000       0.0000       0.0000       0.0000       0.0000       0.0000       0.0000     
    194     (1,1151)              3372.0      -3454.1       82.066       0.0000       0.0000       0.0000       0.0000       0.0000       0.0000       0.0000       0.0000     
    195     (1,1150)              3454.1      -3493.8       39.686       0.0000       0.0000       0.0000       0.0000       0.0000       0.0000       0.0000       0.0000     
    196     (1,1063)              3493.8      -3573.6       79.829       0.0000       0.0000       0.0000       0.0000       0.0000       0.0000       0.0000       0.0000     
    197     (1,1061)              3573.6      -3647.1       73.493       0.0000       0.0000       0.0000       0.0000       0.0000       0.0000       0.0000       0.0000     
    198     (1,968)               3647.1      -3667.5       20.417       0.0000       0.0000       0.0000       0.0000       0.0000       0.0000       0.0000       0.0000     
    199     (1,965)               3667.5      -3705.1       37.566       0.0000       0.0000       0.0000       0.0000       0.0000       0.0000       0.0000       0.0000     
    200     (1,963)               3705.1      -3761.9       56.841       0.0000       0.0000       0.0000       0.0000       0.0000       0.0000       0.0000       0.0000     
    201     (1,960)               3761.9      -3833.7       71.744       0.0000       0.0000       0.0000       0.0000       0.0000       0.0000       0.0000       0.0000     
    202     (1,959)               3833.7      -3909.7       76.030       0.0000       0.0000       0.0000       0.0000       0.0000       0.0000       0.0000       0.0000     
    203     (1,878)               3909.7      -3951.8       42.135       0.0000       0.0000       0.0000       0.0000       0.0000       0.0000       0.0000       0.0000     
    204     (1,875)               3951.8      -4012.2       60.325       0.0000       0.0000       0.0000       0.0000       0.0000       0.0000       0.0000       0.0000     
    205     (1,873)               4012.2      -4067.4       55.196       0.0000       0.0000       0.0000       0.0000       0.0000       0.0000       0.0000       0.0000     
    206     (1,872)               4067.4      -4102.4       35.047       0.0000       0.0000       0.0000       0.0000       0.0000       0.0000       0.0000       0.0000     
    207     (1,794)               4102.4      -4161.0       58.565       0.0000       0.0000       0.0000       0.0000       0.0000       0.0000       0.0000       0.0000     
    208     (1,791)               4161.0      -4176.0       15.028       0.0000       0.0000       0.0000       0.0000       0.0000       0.0000       0.0000       0.0000     
    209     (1,789)               4176.0      -4238.5       62.451       0.0000       0.0000       0.0000       0.0000       0.0000       0.0000       0.0000       0.0000     
    210     (1,712)               4238.5      -4239.5       1.0892       0.0000       0.0000       0.0000       0.0000       0.0000       0.0000       0.0000       0.0000     
    211     (1,711)               4239.5      -4284.2       44.673       0.0000       0.0000       0.0000       0.0000       0.0000       0.0000       0.0000       0.0000     
    212     (1,709)               4284.2      -4294.6       10.333       0.0000       0.0000       0.0000       0.0000       0.0000       0.0000       0.0000       0.0000     
    213     (1,706)               4294.6      -4309.7       15.155       0.0000       0.0000       0.0000       0.0000       0.0000       0.0000       0.0000       0.0000     
    214     (1,630)               4309.7      -4353.2       43.519       0.0000       0.0000       0.0000       0.0000       0.0000       0.0000       0.0000       0.0000     
    215     (1,629)               4353.2      -4385.1       31.862       0.0000       0.0000       0.0000       0.0000       0.0000       0.0000       0.0000       0.0000     
    216     (1,627)               4385.1      -4428.2       43.140       0.0000       0.0000       0.0000       0.0000       0.0000       0.0000       0.0000       0.0000     
    217     (1,624)               4428.2      -4438.1       9.9227       0.0000       0.0000       0.0000       0.0000       0.0000       0.0000       0.0000       0.0000     
    218     (1,549)               4438.1      -4445.6       7.4682       0.0000       0.0000       0.0000       0.0000       0.0000       0.0000       0.0000       0.0000     
    219     (1,547)               4445.6      -4529.0       83.348       0.0000       0.0000       0.0000       0.0000       0.0000       0.0000       0.0000       0.0000     
    220     (1,546)               4529.0      -4623.5       94.487       0.0000       0.0000       0.0000       0.0000       0.0000       0.0000       0.0000       0.0000     
    221     (1,543)               4623.5      -4625.1       1.6443       0.0000       0.0000       0.0000       0.0000       0.0000       0.0000       0.0000       0.0000     
    222     (1,469)               4625.1      -4698.7       73.571       0.0000       0.0000       0.0000       0.0000       0.0000       0.0000       0.0000       0.0000     
    223     (1,467)               4698.7      -4769.4       70.761       0.0000       0.0000       0.0000       0.0000       0.0000       0.0000       0.0000       0.0000     
    224     (1,394)               4769.4      -4809.6       40.172       0.0000       0.0000       0.0000       0.0000       0.0000       0.0000       0.0000       0.0000     
    225     (1,393)               4809.6      -4868.7       59.143       0.0000       0.0000       0.0000       0.0000       0.0000       0.0000       0.0000       0.0000     
    226     (1,390)               4868.7      -4911.0       42.267       0.0000       0.0000       0.0000       0.0000       0.0000       0.0000       0.0000       0.0000     
    227     (1,389)               4911.0      -4947.8       36.788       0.0000       0.0000       0.0000       0.0000       0.0000       0.0000       0.0000       0.0000     
    228     (1,387)               4947.8      -4957.7       9.9008       0.0000       0.0000       0.0000       0.0000       0.0000       0.0000       0.0000       0.0000     
    229     (1,384)               4957.7      -4994.6       36.852       0.0000       0.0000       0.0000       0.0000       0.0000       0.0000       0.0000       0.0000     
    230     (1,383)               4994.6      -5004.5       9.9071       0.0000       0.0000       0.0000       0.0000       0.0000       0.0000       0.0000       0.0000     
    231     (1,302)               5004.5      -5028.2       23.782       0.0000       0.0000       0.0000       0.0000       0.0000       0.0000       0.0000       0.0000     
    232     (1,299)               5028.2      -5044.4       16.178       0.0000       0.0000       0.0000       0.0000       0.0000       0.0000       0.0000       0.0000     
    233     (1,297)               5044.4      -5047.9       3.5018       0.0000       0.0000       0.0000       0.0000       0.0000       0.0000       0.0000       0.0000     
    234     (1,296)               5047.9      -5059.4       11.447       0.0000       0.0000       0.0000       0.0000       0.0000       0.0000       0.0000       0.0000     
    235     (1,293)               5059.4      -5056.9      -2.4800       0.0000       0.0000       0.0000       0.0000       0.0000       0.0000       0.0000       0.0000     
    236     (1,292)               5056.9      -5043.9      -13.008       0.0000       0.0000       0.0000       0.0000       0.0000       0.0000       0.0000       0.0000     
    237     (1,289)               5043.9      -5039.0      -4.8796       0.0000       0.0000       0.0000       0.0000       0.0000       0.0000       0.0000       0.0000     
    238     (1,250)               5039.0      -5006.4      -32.625       0.0000       0.0000       0.0000       0.0000       0.0000       0.0000       0.0000       0.0000     
    239     (1,249)               5006.4      -4932.8      -73.560       0.0000       0.0000       0.0000       0.0000       0.0000       0.0000       0.0000       0.0000     
    240     (1,246)               4932.8      -4948.9       16.079       0.0000       0.0000       0.0000       0.0000       0.0000       0.0000       0.0000       0.0000     
    241     (1,244)               4948.9      -4989.0       40.133       0.0000       0.0000       0.0000       0.0000       0.0000       0.0000       0.0000       0.0000     
    242     (1,243)               4989.0      -5132.8       143.80       0.0000       0.0000       0.0000       0.0000       0.0000       0.0000       0.0000       0.0000     
    243     (1,209)               5132.8      -5204.3       71.501       0.0000       0.0000       0.0000       0.0000       0.0000       0.0000       0.0000       0.0000     
    244     (1,206)               5204.3      -5305.6       101.28       0.0000       0.0000       0.0000       0.0000       0.0000       0.0000       0.0000       0.0000     
    245     (1,204)               5305.6      -5361.0       55.406       0.0000       0.0000       0.0000       0.0000       0.0000       0.0000       0.0000       0.0000     
    246     (1,203)               5361.0      -5445.8       84.780       0.0000       0.0000       0.0000       0.0000       0.0000       0.0000       0.0000       0.0000     
    247     (1,171)               5445.8      -5494.9       49.098       0.0000       0.0000       0.0000       0.0000       0.0000       0.0000       0.0000       0.0000     
    248     (1,168)               5494.9      -5583.4       88.543       0.0000       0.0000       0.0000       0.0000       0.0000       0.0000       0.0000       0.0000     
    249     (1,166)               5583.4      -5590.9       7.4171       0.0000       0.0000       0.0000       0.0000       0.0000       0.0000       0.0000       0.0000     
    250     (1,165)               5590.9      -5683.8       92.931       0.0000       0.0000       0.0000       0.0000       0.0000       0.0000       0.0000       0.0000     
    251     (1,135)               5683.8      -5691.1       7.3049       0.0000       0.0000       0.0000       0.0000       0.0000       0.0000       0.0000       0.0000     
    252     (1,132)               5691.1      -5777.2       86.139       0.0000       0.0000       0.0000       0.0000       0.0000       0.0000       0.0000       0.0000     
    253     (1,130)               5777.2      -5784.0       6.8074       0.0000       0.0000       0.0000       0.0000       0.0000       0.0000       0.0000       0.0000     
    254     (1,129)               5784.0      -5866.0       81.936       0.0000       0.0000       0.0000       0.0000       0.0000       0.0000       0.0000       0.0000     
    255     (1,101)               5866.0      -5872.7       6.7135       0.0000       0.0000       0.0000       0.0000       0.0000       0.0000       0.0000       0.0000     
    256     (1,98)                5872.7      -5951.3       78.591       0.0000       0.0000       0.0000       0.0000       0.0000       0.0000       0.0000       0.0000     
    257     (1,96)                5951.3      -5957.6       6.3718       0.0000       0.0000       0.0000       0.0000       0.0000       0.0000       0.0000       0.0000     
    258     (1,95)                5957.6      -6033.2       75.564       0.0000       0.0000       0.0000       0.0000       0.0000       0.0000       0.0000       0.0000     
    259     (1,69)                6033.2      -6039.6       6.3787       0.0000       0.0000       0.0000       0.0000       0.0000       0.0000       0.0000       0.0000     
    260     (1,66)                6039.6      -6111.6       72.047       0.0000       0.0000       0.0000       0.0000       0.0000       0.0000       0.0000       0.0000     
    261     (1,65)                6111.6      -6115.4       3.7252       0.0000       0.0000       0.0000       0.0000       0.0000       0.0000       0.0000       0.0000     
    262     (1,63)                6115.4      -6183.2       67.859       0.0000       0.0000       0.0000       0.0000       0.0000       0.0000       0.0000       0.0000     
    263     (1,60)                6183.2      -6200.8       17.592       0.0000       0.0000       0.0000       0.0000       0.0000       0.0000       0.0000       0.0000     
    264     (1,36)                6200.8      -6321.9       121.08       0.0000       0.0000       0.0000       0.0000       0.0000       0.0000       0.0000       0.0000     
    265     (1,35)                6321.9      -6373.5       51.636       0.0000       0.0000       0.0000       0.0000       0.0000       0.0000       0.0000       0.0000     
    266     (1,33)                6373.5      -6471.8       98.304       0.0000       0.0000       0.0000       0.0000       0.0000       0.0000       0.0000       0.0000     
    267     (1,30)                6471.8      -6565.6       93.768       0.0000       0.0000       0.0000       0.0000       0.0000       0.0000       0.0000       0.0000     
    268     (1,8)                 6565.6      -6676.0       110.44       0.0000       0.0000       0.0000       0.0000       0.0000       0.0000       0.0000       0.0000     
    269     (1,7)                 6676.0      -6807.3       131.27       0.0000       0.0000       0.0000       0.0000       0.0000       0.0000       0.0000       0.0000     
    270     (1,5)                 6807.3       0.0000       22.766       0.0000       0.0000       0.0000       0.0000      -6830.1       0.0000       0.0000       0.0000     
 ------------------------------------------------------------------------------------------------------------------------------------------------------------------------------




  SFR BUDGET FOR ENTIRE MODEL AT END OF TIME STEP   48, STRESS PERIOD   2
  ------------------------------------------------------------------------------

     CUMULATIVE SFR      L**3       RATES FOR THIS TIME STEP      L**3/T
     ------------------                 ------------------------

           IN:                                      IN:
           ---                                      ---
                 GWF =    10695203.2744                   GWF =        7320.4680
            RAINFALL =           0.0000              RAINFALL =           0.0000
         EVAPORATION =           0.0000           EVAPORATION =           0.0000
              RUNOFF =           0.0000                RUNOFF =           0.0000
          EXT-INFLOW =           0.0000            EXT-INFLOW =           0.0000
         EXT-OUTFLOW =           0.0000           EXT-OUTFLOW =           0.0000
             STORAGE =           0.0000               STORAGE =           0.0000

            TOTAL IN =    10695203.2744              TOTAL IN =        7320.4680

          OUT:                                     OUT:
          ----                                     ----
                 GWF =      716457.4839                   GWF =         490.3884
            RAINFALL =           0.0000              RAINFALL =           0.0000
         EVAPORATION =           0.0000           EVAPORATION =           0.0000
              RUNOFF =           0.0000                RUNOFF =           0.0000
          EXT-INFLOW =           0.0000            EXT-INFLOW =           0.0000
         EXT-OUTFLOW =     9978745.7905           EXT-OUTFLOW =        6830.0796
             STORAGE =           0.0000               STORAGE =           0.0000

           TOTAL OUT =    10695203.2744             TOTAL OUT =        7320.4680

            IN - OUT =       5.5879E-09              IN - OUT =       9.0949E-13

 PERCENT DISCREPANCY =          -0.00     PERCENT DISCREPANCY =           0.00



  VOLUME BUDGET FOR ENTIRE MODEL AT END OF TIME STEP   48, STRESS PERIOD   2
  ---------------------------------------------------------------------------------------------------

     CUMULATIVE VOLUME      L**3       RATES FOR THIS TIME STEP      L**3/T          PACKAGE NAME    
     ------------------                 ------------------------                     ----------------

           IN:                                      IN:
           ---                                      ---
              STO-SS =       2.9028E-09                STO-SS =           0.0000     STORAGE         
              STO-SY =       1.9638E-06                STO-SY =           0.0000     STORAGE         
                 GHB =    13310751.4547                   GHB =        9110.7126     GHB             
                 RCH =      204740.0248                   RCH =         140.1369     RCH             
                 SFR =      716457.4644                   SFR =         490.3884     SFR             

            TOTAL IN =    14231948.9439              TOTAL IN =        9741.2379

          OUT:                                     OUT:
          ----                                     ----
              STO-SS =       2.1759E-04                STO-SS =       4.2924E-12     STORAGE         
              STO-SY =           0.2954                STO-SY =       5.8256E-09     STORAGE         
                 GHB =     3536744.6365                   GHB =        2420.7699     GHB             
                 RCH =           0.0000                   RCH =           0.0000     RCH             
                 SFR =    10695203.3760                   SFR =        7320.4680     SFR             

           TOTAL OUT =    14231948.3082             TOTAL OUT =        9741.2379

            IN - OUT =           0.6357              IN - OUT =       1.4389E-06

 PERCENT DISCREPANCY =           0.00     PERCENT DISCREPANCY =           0.00




         TIME SUMMARY AT END OF TIME STEP   48 IN STRESS PERIOD    2
                    SECONDS     MINUTES      HOURS       DAYS        YEARS
                    -----------------------------------------------------------
   TIME STEP LENGTH 2.62800E+06  43800.      730.00      30.417     8.32763E-02
 STRESS PERIOD TIME 1.26144E+08 2.10240E+06  35040.      1460.0      3.9973    
         TOTAL TIME 1.26230E+08 2.10384E+06  35064.      1461.0      4.0000    


end timestep

