                                   MODFLOW 6
                U.S. GEOLOGICAL SURVEY MODULAR HYDROLOGIC MODEL
                          GROUNDWATER FLOW MODEL (GWF)
                            VERSION 6.2.1 02/18/2021

   MODFLOW 6 compiled Feb 18 2021 21:14:51 with IFORT compiler (ver. 19.10.3)

This software has been approved for release by the U.S. Geological 
Survey (USGS). Although the software has been subjected to rigorous 
review, the USGS reserves the right to update the software as needed 
pursuant to further analysis and review. No warranty, expressed or 
implied, is made by the USGS or the U.S. Government as to the 
functionality of the software and related material nor shall the 
fact of release constitute any such warranty. Furthermore, the 
software is released on condition that neither the USGS nor the U.S. 
Government shall be held liable for any damages resulting from its 
authorized or unauthorized use. Also refer to the USGS Water 
Resources Software User Rights Notice for complete use, copyright, 
and distribution information.


System command used to initiate simulation:
..\bins\win\mf6

MODFLOW was compiled using uniform precision.

Real Variables
  KIND: 8
  TINY (smallest non-zero value):    2.225074-308
  HUGE (largest value):    1.797693+308
  PRECISION: 15
  BIT SIZE: 64

Integer Variables
  KIND: 4
  HUGE (largest value): 2147483647
  BIT SIZE: 32

Long Integer Variables
  KIND: 8
  HUGE (largest value): 9223372036854775807
  BIT SIZE: 64

Logical Variables
  KIND: 4
  BIT SIZE: 32
 

 OPENED .\experimental.disv
 FILE TYPE:DISV6                  UNIT 1005   STATUS:OLD                 
 FORMAT:FORMATTED              ACCESS:SEQUENTIAL          
 ACTION:READ                


 OPENED .\experimental.ic
 FILE TYPE:IC6                    UNIT 1006   STATUS:OLD                 
 FORMAT:FORMATTED              ACCESS:SEQUENTIAL          
 ACTION:READ                


 OPENED .\experimental.npf
 FILE TYPE:NPF6                   UNIT 1007   STATUS:OLD                 
 FORMAT:FORMATTED              ACCESS:SEQUENTIAL          
 ACTION:READ                


 OPENED .\experimental.oc
 FILE TYPE:OC6                    UNIT 1008   STATUS:OLD                 
 FORMAT:FORMATTED              ACCESS:SEQUENTIAL          
 ACTION:READ                


 OPENED .\experimental.sto
 FILE TYPE:STO6                   UNIT 1009   STATUS:OLD                 
 FORMAT:FORMATTED              ACCESS:SEQUENTIAL          
 ACTION:READ                


 OPENED .\experimental.ghb
 FILE TYPE:GHB6                   UNIT 1010   STATUS:OLD                 
 FORMAT:FORMATTED              ACCESS:SEQUENTIAL          
 ACTION:READ                


 OPENED .\experimental.rch
 FILE TYPE:RCH6                   UNIT 1011   STATUS:OLD                 
 FORMAT:FORMATTED              ACCESS:SEQUENTIAL          
 ACTION:READ                


 OPENED .\experimental.sfr
 FILE TYPE:SFR6                   UNIT 1012   STATUS:OLD                 
 FORMAT:FORMATTED              ACCESS:SEQUENTIAL          
 ACTION:READ                


 OPENED .\experimental.obs
 FILE TYPE:OBS6                   UNIT 1013   STATUS:OLD                 
 FORMAT:FORMATTED              ACCESS:SEQUENTIAL          
 ACTION:READ                

 NAMEFILE OPTIONS:
    FLOWS WILL BE SAVED TO BUDGET FILE SPECIFIED IN OUTPUT CONTROL
    NEWTON-RAPHSON method enabled for the model.
    NEWTON-RAPHSON UNDER-RELAXATION based on the bottom elevation of the model will be applied to the model.

 DISV -- VERTEX GRID DISCRETIZATION PACKAGE, VERSION 1 : 12/23/2015 - INPUT READ FROM UNIT 1005


 # File generated by Flopy version 3.3.5 on 11/06/2021 at 11:40:47.

 PROCESSING DISCRETIZATION OPTIONS
    MODEL LENGTH UNIT IS METERS
 END OF DISCRETIZATION OPTIONS

 PROCESSING DISCRETIZATION DIMENSIONS
   NLAY = 3
   NCPL = 3135
   NVERT = 3386
 END OF DISCRETIZATION DIMENSIONS

 PROCESSING GRIDDATA
 END PROCESSING GRIDDATA

 PROCESSING VERTICES
   SUCCESSFULLY READ 3386 (X,Y) COORDINATES
   MINIMUM X COORDINATE =     426888.873000000    
   MAXIMUM X COORDINATE =     427652.548000000    
   MINIMUM Y COORDINATE =     6654697.49000000    
   MAXIMUM Y COORDINATE =     6655291.46000000    
 END PROCESSING VERTICES

 PROCESSING CELL2D
   SUCCESSFULLY READ 3135 CELL2D INFORMATION ENTRIES
   MINIMUM X CELL CENTER =     426895.944000000    
   MAXIMUM X CELL CENTER =     427645.477000000    
   MINIMUM Y CELL CENTER =     6654704.56000000    
   MAXIMUM Y CELL CENTER =     6655284.39000000    
   MAXIMUM NUMBER OF CELL2D VERTICES IS 8 FOR CELL 1815
 END PROCESSING VERTICES

 NPF -- NODE PROPERTY FLOW PACKAGE, VERSION 1, 3/30/2015 INPUT READ FROM UNIT 1007


 # File generated by Flopy version 3.3.5 on 11/06/2021 at 11:40:47.
 PROCESSING NPF OPTIONS
    CELL-BY-CELL FLOW INFORMATION WILL BE SAVED TO BINARY FILE WHENEVER ICBCFL IS NOT ZERO.
 END OF NPF OPTIONS

 GHB   -- GHB PACKAGE, VERSION 8, 2/22/2014 INPUT READ FROM UNIT 1010
 # File generated by Flopy version 3.3.5 on 11/06/2021 at 11:40:47.

 PROCESSING GHB OPTIONS
    GHB BOUNDARIES HAVE NAMES IN LAST COLUMN.
    LISTS OF GHB CELLS WILL BE PRINTED.
    GHB FLOWS WILL BE PRINTED TO LISTING FILE.
    FLOWS WILL BE SAVED TO BUDGET FILE SPECIFIED IN OUTPUT CONTROL
 END OF GHB OPTIONS

 PROCESSING GHB DIMENSIONS
    MAXBOUND =     180
 END OF GHB DIMENSIONS

 RCH   -- RCH PACKAGE, VERSION 8, 2/22/2014 INPUT READ FROM UNIT 1011
 # File generated by Flopy version 3.3.5 on 11/06/2021 at 11:40:47.

 PROCESSING RCH OPTIONS
    RECHARGE WILL BE APPLIED TO SPECIFIED CELL.
    LISTS OF RCH CELLS WILL BE PRINTED.
    RCH FLOWS WILL BE PRINTED TO LISTING FILE.
    FLOWS WILL BE SAVED TO BUDGET FILE SPECIFIED IN OUTPUT CONTROL
 END OF RCH OPTIONS

 PROCESSING RCH DIMENSIONS
    MAXBOUND =    2955
 END OF RCH DIMENSIONS

 SFR   -- SFR PACKAGE, VERSION 8, 2/22/2014 INPUT READ FROM UNIT 1012
 # File generated by Flopy version 3.3.5 on 11/06/2021 at 11:40:47.

 PROCESSING SFR OPTIONS
    LISTS OF SFR CELLS WILL BE PRINTED.
    SFR STAGES WILL BE PRINTED TO LISTING FILE.
    SFR FLOWS WILL BE PRINTED TO LISTING FILE.
    FLOWS WILL BE SAVED TO BUDGET FILE SPECIFIED IN OUTPUT CONTROL

 OPENED experimental.sfr.bud
 FILE TYPE:DATA(BINARY)   UNIT 1015   STATUS:REPLACE             
 FORMAT:UNFORMATTED            ACCESS:STREAM              
 ACTION:READWRITE           

    SFR  BUDGET  WILL BE SAVED TO FILE: experimental.sfr.bud                                                                                                                                                                                                                                                                                                                                                                                                                                                                                                                                                                                                                                                                                                                                                                                                                                                                                                                                                                                                                                                                                                                                                                                                                                                                                                                                                                                                                                                                                                                                                                                                                                                                                                                                                                                                                                                                                                                                                                                                                                                                                                                                                                                                                                                                                                                                                                                                                                                                                                                                                                                                                                                                                                                                                                                                                                                                                                                                                                                                                                                                                                                                                                                                                                                                                                                                                                                                                                                                                                                                                                                                                                                                                                                                                                                                                                                                                                                                                                                                                                                                                                                                                                                                                                                                                                                                                                                                                                                                                                                                                                                                                                                                                                                                                                                                                                                                                                                                                                                                                                                                                                                                                                                    
    OPENED ON UNIT:    1015

 OPENED experimental_leakage.sfr.obs
 FILE TYPE:OBS   UNIT 1016   STATUS:OLD                 
 FORMAT:FORMATTED              ACCESS:SEQUENTIAL          
 ACTION:READ                

    MAXIMUM SFR ITERATION VALUE (100) SPECIFIED.
    UNIT CONVERSION VALUE (86400.00000000000) SPECIFIED.
 END OF SFR OPTIONS

 PROCESSING SFR DIMENSIONS
    NREACHES = 266
 END OF SFR DIMENSIONS

 PROCESSING SFR PACKAGEDATA
 END OF SFR PACKAGEDATA

 PROCESSING SFR CONNECTIONDATA
 END OF SFR CONNECTIONDATA

 IC -- INITIAL CONDITIONS PACKAGE, VERSION 8, 3/28/2015 INPUT READ FROM UNIT 1006
 # File generated by Flopy version 3.3.5 on 11/06/2021 at 11:40:47.
 PROCESSING GRIDDATA

     INITIAL HEAD =   138.0000    
 END PROCESSING GRIDDATA
 PROCESSING GRIDDATA

                ICELLTYPE = 1 FOR LAYER 1

                ICELLTYPE = 0 FOR LAYER 2

                ICELLTYPE = 0 FOR LAYER 3

                        K =   86.40000     FOR LAYER 1

                        K =   86.40000     FOR LAYER 2

                        K =   43.20000     FOR LAYER 3

                      K33 =   8.640000     FOR LAYER 1

                      K33 =   8.640000     FOR LAYER 2

                      K33 =  0.1000000     FOR LAYER 3
 K22 not provided.  Assuming K22 = K.
 END PROCESSING GRIDDATA

 STO -- STORAGE PACKAGE, VERSION 1, 5/19/2014 INPUT READ FROM UNIT 1009


 # File generated by Flopy version 3.3.5 on 11/06/2021 at 11:40:47.
 PROCESSING STORAGE OPTIONS
    CELL-BY-CELL FLOW INFORMATION WILL BE SAVED TO BINARY FILE WHENEVER ICBCFL IS NOT ZERO.
 END OF STORAGE OPTIONS
 PROCESSING GRIDDATA

                 ICONVERT = 1

         SPECIFIC STORAGE FOR LAYER 1
       1.000E-06  1.000E-06  1.000E-06  1.000E-06  1.000E-06  1.000E-06  1.000E-06  1.000E-06  1.000E-06  1.000E-06  1.000E-06
       1.000E-06  1.000E-06  1.000E-06  1.000E-06  1.000E-06  1.000E-06  1.000E-06  1.000E-06  1.000E-06  1.000E-06  1.000E-06
       1.000E-06  1.000E-06  1.000E-06  1.000E-06  1.000E-06  1.000E-06  1.000E-06  1.000E-06  1.000E-06  1.000E-06  1.000E-06
       1.000E-06  1.000E-06  1.000E-06  1.000E-06  1.000E-06  1.000E-06  1.000E-06  1.000E-06  1.000E-06  1.000E-06  1.000E-06
       1.000E-06  1.000E-06  1.000E-06  1.000E-06  1.000E-06  1.000E-06  1.000E-06  1.000E-06  1.000E-06  1.000E-06  1.000E-06
       1.000E-06  1.000E-06  1.000E-06  1.000E-06  1.000E-06  1.000E-06  1.000E-06  1.000E-06  1.000E-06  1.000E-06  1.000E-06
       1.000E-06  1.000E-06  1.000E-06  1.000E-06  1.000E-06  1.000E-06  1.000E-06  1.000E-06  1.000E-06  1.000E-06  1.000E-06
       1.000E-06  1.000E-06  1.000E-06  1.000E-06  1.000E-06  1.000E-06  1.000E-06  1.000E-06  1.000E-06  1.000E-06  1.000E-06
       1.000E-06  1.000E-06  1.000E-06  1.000E-06  1.000E-06  1.000E-06  1.000E-06  1.000E-06  1.000E-06  1.000E-06  1.000E-06
       1.000E-06  1.000E-06  1.000E-06  1.000E-06  1.000E-06  1.000E-06  1.000E-06  1.000E-06  1.000E-06  1.000E-06  1.000E-06
       1.000E-06  1.000E-06  1.000E-06  1.000E-06  1.000E-06  1.000E-06  1.000E-06  1.000E-06  1.000E-06  1.000E-06  1.000E-06
       1.000E-06  1.000E-06  1.000E-06  1.000E-06  1.000E-06  1.000E-06  1.000E-06  1.000E-06  1.000E-06  1.000E-06  1.000E-06
       1.000E-06  1.000E-06  1.000E-06  1.000E-06  1.000E-06  1.000E-06  1.000E-06  1.000E-06  1.000E-06  1.000E-06  1.000E-06
       1.000E-06  1.000E-06  1.000E-06  1.000E-06  1.000E-06  1.000E-06  1.000E-06  1.000E-06  1.000E-06  1.000E-06  1.000E-06
       1.000E-06  1.000E-06  1.000E-06  1.000E-06  1.000E-06  1.000E-06  1.000E-06  1.000E-06  1.000E-06  1.000E-06  1.000E-06
       1.000E-06  1.000E-06  1.000E-06  1.000E-06  1.000E-06  1.000E-06  1.000E-06  1.000E-06  1.000E-06  1.000E-06  1.000E-06
       1.000E-06  1.000E-06  1.000E-06  1.000E-06  1.000E-06  1.000E-06  1.000E-06  1.000E-06  1.000E-06  1.000E-06  1.000E-06
       1.000E-06  1.000E-06  1.000E-06  1.000E-06  1.000E-06  1.000E-06  1.000E-06  1.000E-06  1.000E-06  1.000E-06  1.000E-06
       1.000E-06  1.000E-06  1.000E-06  1.000E-06  1.000E-06  1.000E-06  1.000E-06  1.000E-06  1.000E-06  1.000E-06  1.000E-06
       1.000E-06  1.000E-06  1.000E-06  1.000E-06  1.000E-06  1.000E-06  1.000E-06  1.000E-06  1.000E-06  1.000E-06  1.000E-06
       1.000E-06  1.000E-06  1.000E-06  1.000E-06  1.000E-06  1.000E-06  1.000E-06  1.000E-06  1.000E-06  1.000E-06  1.000E-06
       1.000E-06  1.000E-06  1.000E-06  1.000E-06  1.000E-06  1.000E-06  1.000E-06  1.000E-06  1.000E-06  1.000E-06  1.000E-06
       1.000E-06  1.000E-06  1.000E-06  1.000E-06  1.000E-06  1.000E-06  1.000E-06  1.000E-06  1.000E-06  1.000E-06  1.000E-06
       1.000E-06  1.000E-06  1.000E-06  1.000E-06  1.000E-06  1.000E-06  1.000E-06  1.000E-06  1.000E-06  1.000E-06  1.000E-06
       1.000E-06  1.000E-06  1.000E-06  1.000E-06  1.000E-06  1.000E-06  1.000E-06  1.000E-06  1.000E-06  1.000E-06  1.000E-06
       1.000E-06  1.000E-06  1.000E-06  1.000E-06  1.000E-06  1.000E-06  1.000E-06  1.000E-06  1.000E-06  1.000E-06  1.000E-06
       1.000E-06  1.000E-06  1.000E-06  1.000E-06  1.000E-06  1.000E-06  1.000E-06  1.000E-06  1.000E-06  1.000E-06  1.000E-06
       1.000E-06  1.000E-06  1.000E-06  1.000E-06  1.000E-06  1.000E-06  1.000E-06  1.000E-06  1.000E-06  1.000E-06  1.000E-06
       1.000E-06  1.000E-06  1.000E-06  1.000E-06  1.000E-06  1.000E-06  1.000E-06  1.000E-06  1.000E-06  1.000E-06  1.000E-06
       1.000E-06  1.000E-06  1.000E-06  1.000E-06  1.000E-06  1.000E-06  1.000E-06  1.000E-06  1.000E-06  1.000E-06  1.000E-06
       1.000E-06  1.000E-06  1.000E-06  1.000E-06  1.000E-06  1.000E-06  1.000E-06  1.000E-06  1.000E-06  1.000E-06  1.000E-06
       1.000E-06  1.000E-06  1.000E-06  1.000E-06  1.000E-06  1.000E-06  1.000E-06  1.000E-06  1.000E-06  1.000E-06  1.000E-06
       1.000E-06  1.000E-06  1.000E-06  1.000E-06  1.000E-06  1.000E-06  1.000E-06  1.000E-06  1.000E-06  1.000E-06  1.000E-06
       1.000E-06  1.000E-06  1.000E-06  1.000E-06  1.000E-06  1.000E-06  1.000E-06  1.000E-06  1.000E-06  1.000E-06  1.000E-06
       1.000E-06  1.000E-06  1.000E-06  1.000E-06  1.000E-06  1.000E-06  1.000E-06  1.000E-06  1.000E-06  1.000E-06  1.000E-06
       1.000E-06  1.000E-06  1.000E-06  1.000E-06  1.000E-06  1.000E-06  1.000E-06  1.000E-06  1.000E-06  1.000E-06  1.000E-06
       1.000E-06  1.000E-06  1.000E-06  1.000E-06  1.000E-06  1.000E-06  1.000E-06  1.000E-06  1.000E-06  1.000E-06  1.000E-06
       1.000E-06  1.000E-06  1.000E-06  1.000E-06  1.000E-06  1.000E-06  1.000E-06  1.000E-06  1.000E-06  1.000E-06  1.000E-06
       1.000E-06  1.000E-06  1.000E-06  1.000E-06  1.000E-06  1.000E-06  1.000E-06  1.000E-06  1.000E-06  1.000E-06  1.000E-06
       1.000E-06  1.000E-06  1.000E-06  1.000E-06  1.000E-06  1.000E-06  1.000E-06  1.000E-06  1.000E-06  1.000E-06  1.000E-06
       1.000E-06  1.000E-06  1.000E-06  1.000E-06  1.000E-06  1.000E-06  1.000E-06  1.000E-06  1.000E-06  1.000E-06  1.000E-06
       1.000E-06  1.000E-06  1.000E-06  1.000E-06  1.000E-06  1.000E-06  1.000E-06  1.000E-06  1.000E-06  1.000E-06  1.000E-06
       1.000E-06  1.000E-06  1.000E-06  1.000E-06  1.000E-06  1.000E-06  1.000E-06  1.000E-06  1.000E-06  1.000E-06  1.000E-06
       1.000E-06  1.000E-06  1.000E-06  1.000E-06  1.000E-06  1.000E-06  1.000E-06  1.000E-06  1.000E-06  1.000E-06  1.000E-06
       1.000E-06  1.000E-06  1.000E-06  1.000E-06  1.000E-06  1.000E-06  1.000E-06  1.000E-06  1.000E-06  1.000E-06  1.000E-06
       1.000E-06  1.000E-06  1.000E-06  1.000E-06  1.000E-06  1.000E-06  1.000E-06  1.000E-06  1.000E-06  1.000E-06  1.000E-06
       1.000E-06  1.000E-06  1.000E-06  1.000E-06  1.000E-06  1.000E-06  1.000E-06  1.000E-06  1.000E-06  1.000E-06  1.000E-06
       1.000E-06  1.000E-06  1.000E-06  1.000E-06  1.000E-06  1.000E-06  1.000E-06  1.000E-06  1.000E-06  1.000E-06  1.000E-06
       1.000E-06  1.000E-06  1.000E-06  1.000E-06  1.000E-06  1.000E-06  1.000E-06  1.000E-06  1.000E-06  1.000E-06  1.000E-06
       1.000E-06  1.000E-06  1.000E-06  1.000E-06  1.000E-06  1.000E-06  1.000E-06  1.000E-06  1.000E-06  1.000E-06  1.000E-06
       1.000E-06  1.000E-06  1.000E-06  1.000E-06  1.000E-06  1.000E-06  1.000E-06  1.000E-06  1.000E-06  1.000E-06  1.000E-06
       1.000E-06  1.000E-06  1.000E-06  1.000E-06  1.000E-06  1.000E-06  1.000E-06  1.000E-06  1.000E-06  1.000E-06  1.000E-06
       1.000E-06  1.000E-06  1.000E-06  1.000E-06  1.000E-06  1.000E-06  1.000E-06  1.000E-06  1.000E-06  1.000E-06  1.000E-06
       1.000E-06  1.000E-06  1.000E-06  1.000E-06  1.000E-06  1.000E-06  1.000E-06  1.000E-06  1.000E-06  1.000E-06  1.000E-06
       1.000E-06  1.000E-06  1.000E-06  1.000E-06  1.000E-06  1.000E-06  1.000E-06  1.000E-06  1.000E-06  1.000E-06  1.000E-06
       1.000E-06  1.000E-06  1.000E-06  1.000E-06  1.000E-06  1.000E-06  1.000E-06  1.000E-06  1.000E-06  1.000E-06  1.000E-06
       1.000E-06  1.000E-06  1.000E-06  1.000E-06  1.000E-06  1.000E-06  1.000E-06  1.000E-06  1.000E-06  1.000E-06  1.000E-06
       1.000E-06  1.000E-06  1.000E-06  1.000E-06  1.000E-06  1.000E-06  1.000E-06  1.000E-06  1.000E-06  1.000E-06  1.000E-06
       1.000E-06  1.000E-06  1.000E-06  1.000E-06  1.000E-06  1.000E-06  1.000E-06  1.000E-06  1.000E-06  1.000E-06  1.000E-06
       1.000E-06  1.000E-06  1.000E-06  1.000E-06  1.000E-06  1.000E-06  1.000E-06  1.000E-06  1.000E-06  1.000E-06  1.000E-06
       1.000E-06  1.000E-06  1.000E-06  1.000E-06  1.000E-06  1.000E-06  1.000E-06  1.000E-06  1.000E-06  1.000E-06  1.000E-06
       1.000E-06  1.000E-06  1.000E-06  1.000E-06  1.000E-06  1.000E-06  1.000E-06  1.000E-06  1.000E-06  1.000E-06  1.000E-06
       1.000E-06  1.000E-06  1.000E-06  1.000E-06  1.000E-06  1.000E-06  1.000E-06  1.000E-06  1.000E-06  1.000E-06  1.000E-06
       1.000E-06  1.000E-06  1.000E-06  1.000E-06  1.000E-06  1.000E-06  1.000E-06  1.000E-06  1.000E-06  1.000E-06  1.000E-06
       1.000E-06  1.000E-06  1.000E-06  1.000E-06  1.000E-06  1.000E-06  1.000E-06  1.000E-06  1.000E-06  1.000E-06  1.000E-06
       1.000E-06  1.000E-06  1.000E-06  1.000E-06  1.000E-06  1.000E-06  1.000E-06  1.000E-06  1.000E-06  1.000E-06  1.000E-06
       1.000E-06  1.000E-06  1.000E-06  1.000E-06  1.000E-06  1.000E-06  1.000E-06  1.000E-06  1.000E-06  1.000E-06  1.000E-06
       1.000E-06  1.000E-06  1.000E-06  1.000E-06  1.000E-06  1.000E-06  1.000E-06  1.000E-06  1.000E-06  1.000E-06  1.000E-06
       1.000E-06  1.000E-06  1.000E-06  1.000E-06  1.000E-06  1.000E-06  1.000E-06  1.000E-06  1.000E-06  1.000E-06  1.000E-06
       1.000E-06  1.000E-06  1.000E-06  1.000E-06  1.000E-06  1.000E-06  1.000E-06  1.000E-06  1.000E-06  1.000E-06  1.000E-06
       1.000E-06  1.000E-06  1.000E-06  1.000E-06  1.000E-06  1.000E-06  1.000E-06  1.000E-06  1.000E-06  1.000E-06  1.000E-06
       1.000E-06  1.000E-06  1.000E-06  1.000E-06  1.000E-06  1.000E-06  1.000E-06  1.000E-06  1.000E-06  1.000E-06  1.000E-06
       1.000E-06  1.000E-06  1.000E-06  1.000E-06  1.000E-06  1.000E-06  1.000E-06  1.000E-06  1.000E-06  1.000E-06  1.000E-06
       1.000E-06  1.000E-06  1.000E-06  1.000E-06  1.000E-06  1.000E-06  1.000E-06  1.000E-06  1.000E-06  1.000E-06  1.000E-06
       1.000E-06  1.000E-06  1.000E-06  1.000E-06  1.000E-06  1.000E-06  1.000E-06  1.000E-06  1.000E-06  1.000E-06  1.000E-06
       1.000E-06  1.000E-06  1.000E-06  1.000E-06  1.000E-06  1.000E-06  1.000E-06  1.000E-06  1.000E-06  1.000E-06  1.000E-06
       1.000E-06  1.000E-06  1.000E-06  1.000E-06  1.000E-06  1.000E-06  1.000E-06  1.000E-06  1.000E-06  1.000E-06  1.000E-06
       1.000E-06  1.000E-06  1.000E-06  1.000E-06  1.000E-06  1.000E-06  1.000E-06  1.000E-06  1.000E-06  1.000E-06  1.000E-06
       1.000E-06  1.000E-06  1.000E-06  1.000E-06  1.000E-06  1.000E-06  1.000E-06  1.000E-06  1.000E-06  1.000E-06  1.000E-06
       1.000E-06  1.000E-06  1.000E-06  1.000E-06  1.000E-06  1.000E-06  1.000E-06  1.000E-06  1.000E-06  1.000E-06  1.000E-06
       1.000E-06  1.000E-06  1.000E-06  1.000E-06  1.000E-06  1.000E-06  1.000E-06  1.000E-06  1.000E-06  1.000E-06  1.000E-06
       1.000E-06  1.000E-06  1.000E-06  1.000E-06  1.000E-06  1.000E-06  1.000E-06  1.000E-06  1.000E-06  1.000E-06  1.000E-06
       1.000E-06  1.000E-06  1.000E-06  1.000E-06  1.000E-06  1.000E-06  1.000E-06  1.000E-06  1.000E-06  1.000E-06  1.000E-06
       1.000E-06  1.000E-06  1.000E-06  1.000E-06  1.000E-06  1.000E-06  1.000E-06  1.000E-06  1.000E-06  1.000E-06  1.000E-06
       1.000E-06  1.000E-06  1.000E-06  1.000E-06  1.000E-06  1.000E-06  1.000E-06  1.000E-06  1.000E-06  1.000E-06  1.000E-06
       1.000E-06  1.000E-06  1.000E-06  1.000E-06  1.000E-06  1.000E-06  1.000E-06  1.000E-06  1.000E-06  1.000E-06  1.000E-06
       1.000E-06  1.000E-06  1.000E-06  1.000E-06  1.000E-06  1.000E-06  1.000E-06  1.000E-06  1.000E-06  1.000E-06  1.000E-06
       1.000E-06  1.000E-06  1.000E-06  1.000E-06  1.000E-06  1.000E-06  1.000E-06  1.000E-06  1.000E-06  1.000E-06  1.000E-06
       1.000E-06  1.000E-06  1.000E-06  1.000E-06  1.000E-06  1.000E-06  1.000E-06  1.000E-06  1.000E-06  1.000E-06  1.000E-06
       1.000E-06  1.000E-06  1.000E-06  1.000E-06  1.000E-06  1.000E-06  1.000E-06  1.000E-06  1.000E-06  1.000E-06  1.000E-06
       1.000E-06  1.000E-06  1.000E-06  1.000E-06  1.000E-06  1.000E-06  1.000E-06  1.000E-06  1.000E-06  1.000E-06  1.000E-06
       1.000E-06  1.000E-06  1.000E-06  1.000E-06  1.000E-06  1.000E-06  1.000E-06  1.000E-06  1.000E-06  1.000E-06  1.000E-06
       1.000E-06  1.000E-06  1.000E-06  1.000E-06  1.000E-06  1.000E-06  1.000E-06  1.000E-06  1.000E-06  1.000E-06  1.000E-06
       1.000E-06  1.000E-06  1.000E-06  1.000E-06  1.000E-06  1.000E-06  1.000E-06  1.000E-06  1.000E-06  1.000E-06  1.000E-06
       1.000E-06  1.000E-06  1.000E-06  1.000E-06  1.000E-06  1.000E-06  1.000E-06  1.000E-06  1.000E-06  1.000E-06  1.000E-06
       1.000E-06  1.000E-06  1.000E-06  1.000E-06  1.000E-06  1.000E-06  1.000E-06  1.000E-06  1.000E-06  1.000E-06  1.000E-06
       1.000E-06  1.000E-06  1.000E-06  1.000E-06  1.000E-06  1.000E-06  1.000E-06  1.000E-06  1.000E-06  1.000E-06  1.000E-06
       1.000E-06  1.000E-06  1.000E-06  1.000E-06  1.000E-06  1.000E-06  1.000E-06  1.000E-06  1.000E-06  1.000E-06  1.000E-06
       1.000E-06  1.000E-06  1.000E-06  1.000E-06  1.000E-06  1.000E-06  1.000E-06  1.000E-06  1.000E-06  1.000E-06  1.000E-06
       1.000E-06  1.000E-06  1.000E-06  1.000E-06  1.000E-06  1.000E-06  1.000E-06  1.000E-06  1.000E-06  1.000E-06  1.000E-06
       1.000E-06  1.000E-06  1.000E-06  1.000E-06  1.000E-06  1.000E-06  1.000E-06  1.000E-06  1.000E-06  1.000E-06  1.000E-06
       1.000E-06  1.000E-06  1.000E-06  1.000E-06  1.000E-06  1.000E-06  1.000E-06  1.000E-06  1.000E-06  1.000E-06  1.000E-06
       1.000E-06  1.000E-06  1.000E-06  1.000E-06  1.000E-06  1.000E-06  1.000E-06  1.000E-06  1.000E-06  1.000E-06  1.000E-06
       1.000E-06  1.000E-06  1.000E-06  1.000E-06  1.000E-06  1.000E-06  1.000E-06  1.000E-06  1.000E-06  1.000E-06  1.000E-06
       1.000E-06  1.000E-06  1.000E-06  1.000E-06  1.000E-06  1.000E-06  1.000E-06  1.000E-06  1.000E-06  1.000E-06  1.000E-06
       1.000E-06  1.000E-06  1.000E-06  1.000E-06  1.000E-06  1.000E-06  1.000E-06  1.000E-06  1.000E-06  1.000E-06  1.000E-06
       1.000E-06  1.000E-06  1.000E-06  1.000E-06  1.000E-06  1.000E-06  1.000E-06  1.000E-06  1.000E-06  1.000E-06  1.000E-06
       1.000E-06  1.000E-06  1.000E-06  1.000E-06  1.000E-06  1.000E-06  1.000E-06  1.000E-06  1.000E-06  1.000E-06  1.000E-06
       1.000E-06  1.000E-06  1.000E-06  1.000E-06  1.000E-06  1.000E-06  1.000E-06  1.000E-06  1.000E-06  1.000E-06  1.000E-06
       1.000E-06  1.000E-06  1.000E-06  1.000E-06  1.000E-06  1.000E-06  1.000E-06  1.000E-06  1.000E-06  1.000E-06  1.000E-06
       1.000E-06  1.000E-06  1.000E-06  1.000E-06  1.000E-06  1.000E-06  1.000E-06  1.000E-06  1.000E-06  1.000E-06  1.000E-06
       1.000E-06  1.000E-06  1.000E-06  1.000E-06  1.000E-06  1.000E-06  1.000E-06  1.000E-06  1.000E-06  1.000E-06  1.000E-06
       1.000E-06  1.000E-06  1.000E-06  1.000E-06  1.000E-06  1.000E-06  1.000E-06  1.000E-06  1.000E-06  1.000E-06  1.000E-06
       1.000E-06  1.000E-06  1.000E-06  1.000E-06  1.000E-06  1.000E-06  1.000E-06  1.000E-06  1.000E-06  1.000E-06  1.000E-06
       1.000E-06  1.000E-06  1.000E-06  1.000E-06  1.000E-06  1.000E-06  1.000E-06  1.000E-06  1.000E-06  1.000E-06  1.000E-06
       1.000E-06  1.000E-06  1.000E-06  1.000E-06  1.000E-06  1.000E-06  1.000E-06  1.000E-06  1.000E-06  1.000E-06  1.000E-06
       1.000E-06  1.000E-06  1.000E-06  1.000E-06  1.000E-06  1.000E-06  1.000E-06  1.000E-06  1.000E-06  1.000E-06  1.000E-06
       1.000E-06  1.000E-06  1.000E-06  1.000E-06  1.000E-06  1.000E-06  1.000E-06  1.000E-06  1.000E-06  1.000E-06  1.000E-06
       1.000E-06  1.000E-06  1.000E-06  1.000E-06  1.000E-06  1.000E-06  1.000E-06  1.000E-06  1.000E-06  1.000E-06  1.000E-06
       1.000E-06  1.000E-06  1.000E-06  1.000E-06  1.000E-06  1.000E-06  1.000E-06  1.000E-06  1.000E-06  1.000E-06  1.000E-06
       1.000E-06  1.000E-06  1.000E-06  1.000E-06  1.000E-06  1.000E-06  1.000E-06  1.000E-06  1.000E-06  1.000E-06  1.000E-06
       1.000E-06  1.000E-06  1.000E-06  1.000E-06  1.000E-06  1.000E-06  1.000E-06  1.000E-06  1.000E-06  1.000E-06  1.000E-06
       1.000E-06  1.000E-06  1.000E-06  1.000E-06  1.000E-06  1.000E-06  1.000E-06  1.000E-06  1.000E-06  1.000E-06  1.000E-06
       1.000E-06  1.000E-06  1.000E-06  1.000E-06  1.000E-06  1.000E-06  1.000E-06  1.000E-06  1.000E-06  1.000E-06  1.000E-06
       1.000E-06  1.000E-06  1.000E-06  1.000E-06  1.000E-06  1.000E-06  1.000E-06  1.000E-06  1.000E-06  1.000E-06  1.000E-06
       1.000E-06  1.000E-06  1.000E-06  1.000E-06  1.000E-06  1.000E-06  1.000E-06  1.000E-06  1.000E-06  1.000E-06  1.000E-06
       1.000E-06  1.000E-06  1.000E-06  1.000E-06  1.000E-06  1.000E-06  1.000E-06  1.000E-06  1.000E-06  1.000E-06  1.000E-06
       1.000E-06  1.000E-06  1.000E-06  1.000E-06  1.000E-06  1.000E-06  1.000E-06  1.000E-06  1.000E-06  1.000E-06  1.000E-06
       1.000E-06  1.000E-06  1.000E-06  1.000E-06  1.000E-06  1.000E-06  1.000E-06  1.000E-06  1.000E-06  1.000E-06  1.000E-06
       1.000E-06  1.000E-06  1.000E-06  1.000E-06  1.000E-06  1.000E-06  1.000E-06  1.000E-06  1.000E-06  1.000E-06  1.000E-06
       1.000E-06  1.000E-06  1.000E-06  1.000E-06  1.000E-06  1.000E-06  1.000E-06  1.000E-06  1.000E-06  1.000E-06  1.000E-06
       1.000E-06  1.000E-06  1.000E-06  1.000E-06  1.000E-06  1.000E-06  1.000E-06  1.000E-06  1.000E-06  1.000E-06  1.000E-06
       1.000E-06  1.000E-06  1.000E-06  1.000E-06  1.000E-06  1.000E-06  1.000E-06  1.000E-06  1.000E-06  1.000E-06  1.000E-06
       1.000E-06  1.000E-06  1.000E-06  1.000E-06  1.000E-06  1.000E-06  1.000E-06  1.000E-06  1.000E-06  1.000E-06  1.000E-06
       1.000E-06  1.000E-06  1.000E-06  1.000E-06  1.000E-06  1.000E-06  1.000E-06  1.000E-06  1.000E-06  1.000E-06  1.000E-06
       1.000E-06  1.000E-06  1.000E-06  1.000E-06  1.000E-06  1.000E-06  1.000E-06  1.000E-06  1.000E-06  1.000E-06  1.000E-06
       1.000E-06  1.000E-06  1.000E-06  1.000E-06  1.000E-06  1.000E-06  1.000E-06  1.000E-06  1.000E-06  1.000E-06  1.000E-06
       1.000E-06  1.000E-06  1.000E-06  1.000E-06  1.000E-06  1.000E-06  1.000E-06  1.000E-06  1.000E-06  1.000E-06  1.000E-06
       1.000E-06  1.000E-06  1.000E-06  1.000E-06  1.000E-06  1.000E-06  1.000E-06  1.000E-06  1.000E-06  1.000E-06  1.000E-06
       1.000E-06  1.000E-06  1.000E-06  1.000E-06  1.000E-06  1.000E-06  1.000E-06  1.000E-06  1.000E-06  1.000E-06  1.000E-06
       1.000E-06  1.000E-06  1.000E-06  1.000E-06  1.000E-06  1.000E-06  1.000E-06  1.000E-06  1.000E-06  1.000E-06  1.000E-06
       1.000E-06  1.000E-06  1.000E-06  1.000E-06  1.000E-06  1.000E-06  1.000E-06  1.000E-06  1.000E-06  1.000E-06  1.000E-06
       1.000E-06  1.000E-06  1.000E-06  1.000E-06  1.000E-06  1.000E-06  1.000E-06  1.000E-06  1.000E-06  1.000E-06  1.000E-06
       1.000E-06  1.000E-06  1.000E-06  1.000E-06  1.000E-06  1.000E-06  1.000E-06  1.000E-06  1.000E-06  1.000E-06  1.000E-06
       1.000E-06  1.000E-06  1.000E-06  1.000E-06  1.000E-06  1.000E-06  1.000E-06  1.000E-06  1.000E-06  1.000E-06  1.000E-06
       1.000E-06  1.000E-06  1.000E-06  1.000E-06  1.000E-06  1.000E-06  1.000E-06  1.000E-06  1.000E-06  1.000E-06  1.000E-06
       1.000E-06  1.000E-06  1.000E-06  1.000E-06  1.000E-06  1.000E-06  1.000E-06  1.000E-06  1.000E-06  1.000E-06  1.000E-06
       1.000E-06  1.000E-06  1.000E-06  1.000E-06  1.000E-06  1.000E-06  1.000E-06  1.000E-06  1.000E-06  1.000E-06  1.000E-06
       1.000E-06  1.000E-06  1.000E-06  1.000E-06  1.000E-06  1.000E-06  1.000E-06  1.000E-06  1.000E-06  1.000E-06  1.000E-06
       1.000E-06  1.000E-06  1.000E-06  1.000E-06  1.000E-06  1.000E-06  1.000E-06  1.000E-06  1.000E-06  1.000E-06  1.000E-06
       1.000E-06  1.000E-06  1.000E-06  1.000E-06  1.000E-06  1.000E-06  1.000E-06  1.000E-06  1.000E-06  1.000E-06  1.000E-06
       1.000E-06  1.000E-06  1.000E-06  1.000E-06  1.000E-06  1.000E-06  1.000E-06  1.000E-06  1.000E-06  1.000E-06  1.000E-06
       1.000E-06  1.000E-06  1.000E-06  1.000E-06  1.000E-06  1.000E-06  1.000E-06  1.000E-06  1.000E-06  1.000E-06  1.000E-06
       1.000E-06  1.000E-06  1.000E-06  1.000E-06  1.000E-06  1.000E-06  1.000E-06  1.000E-06  1.000E-06  1.000E-06  1.000E-06
       1.000E-06  1.000E-06  1.000E-06  1.000E-06  1.000E-06  1.000E-06  1.000E-06  1.000E-06  1.000E-06  1.000E-06  1.000E-06
       1.000E-06  1.000E-06  1.000E-06  1.000E-06  1.000E-06  1.000E-06  1.000E-06  1.000E-06  1.000E-06  1.000E-06  1.000E-06
       1.000E-06  1.000E-06  1.000E-06  1.000E-06  1.000E-06  1.000E-06  1.000E-06  1.000E-06  1.000E-06  1.000E-06  1.000E-06
       1.000E-06  1.000E-06  1.000E-06  1.000E-06  1.000E-06  1.000E-06  1.000E-06  1.000E-06  1.000E-06  1.000E-06  1.000E-06
       1.000E-06  1.000E-06  1.000E-06  1.000E-06  1.000E-06  1.000E-06  1.000E-06  1.000E-06  1.000E-06  1.000E-06  1.000E-06
       1.000E-06  1.000E-06  1.000E-06  1.000E-06  1.000E-06  1.000E-06  1.000E-06  1.000E-06  1.000E-06  1.000E-06  1.000E-06
       1.000E-06  1.000E-06  1.000E-06  1.000E-06  1.000E-06  1.000E-06  1.000E-06  1.000E-06  1.000E-06  1.000E-06  1.000E-06
       1.000E-06  1.000E-06  1.000E-06  1.000E-06  1.000E-06  1.000E-06  1.000E-06  1.000E-06  1.000E-06  1.000E-06  1.000E-06
       1.000E-06  1.000E-06  1.000E-06  1.000E-06  1.000E-06  1.000E-06  1.000E-06  1.000E-06  1.000E-06  1.000E-06  1.000E-06
       1.000E-06  1.000E-06  1.000E-06  1.000E-06  1.000E-06  1.000E-06  1.000E-06  1.000E-06  1.000E-06  1.000E-06  1.000E-06
       1.000E-06  1.000E-06  1.000E-06  1.000E-06  1.000E-06  1.000E-06  1.000E-06  1.000E-06  1.000E-06  1.000E-06  1.000E-06
       1.000E-06  1.000E-06  1.000E-06  1.000E-06  1.000E-06  1.000E-06  1.000E-06  1.000E-06  1.000E-06  1.000E-06  1.000E-06
       1.000E-06  1.000E-06  1.000E-06  1.000E-06  1.000E-06  1.000E-06  1.000E-06  1.000E-06  1.000E-06  1.000E-06  1.000E-06
       1.000E-06  1.000E-06  1.000E-06  1.000E-06  1.000E-06  1.000E-06  1.000E-06  1.000E-06  1.000E-06  1.000E-06  1.000E-06
       1.000E-06  1.000E-06  1.000E-06  1.000E-06  1.000E-06  1.000E-06  1.000E-06  1.000E-06  1.000E-06  1.000E-06  1.000E-06
       1.000E-06  1.000E-06  1.000E-06  1.000E-06  1.000E-06  1.000E-06  1.000E-06  1.000E-06  1.000E-06  1.000E-06  1.000E-06
       1.000E-06  1.000E-06  1.000E-06  1.000E-06  1.000E-06  1.000E-06  1.000E-06  1.000E-06  1.000E-06  1.000E-06  1.000E-06
       1.000E-06  1.000E-06  1.000E-06  1.000E-06  1.000E-06  1.000E-06  1.000E-06  1.000E-06  1.000E-06  1.000E-06  1.000E-06
       1.000E-06  1.000E-06  1.000E-06  1.000E-06  1.000E-06  1.000E-06  1.000E-06  1.000E-06  1.000E-06  1.000E-06  1.000E-06
       1.000E-06  1.000E-06  1.000E-06  1.000E-06  1.000E-06  1.000E-06  1.000E-06  1.000E-06  1.000E-06  1.000E-06  1.000E-06
       1.000E-06  1.000E-06  1.000E-06  1.000E-06  1.000E-06  1.000E-06  1.000E-06  1.000E-06  1.000E-06  1.000E-06  1.000E-06
       1.000E-06  1.000E-06  1.000E-06  1.000E-06  1.000E-06  1.000E-06  1.000E-06  1.000E-06  1.000E-06  1.000E-06  1.000E-06
       1.000E-06  1.000E-06  1.000E-06  1.000E-06  1.000E-06  1.000E-06  1.000E-06  1.000E-06  1.000E-06  1.000E-06  1.000E-06
       1.000E-06  1.000E-06  1.000E-06  1.000E-06  1.000E-06  1.000E-06  1.000E-06  1.000E-06  1.000E-06  1.000E-06  1.000E-06
       1.000E-06  1.000E-06  1.000E-06  1.000E-06  1.000E-06  1.000E-06  1.000E-06  1.000E-06  1.000E-06  1.000E-06  1.000E-06
       1.000E-06  1.000E-06  1.000E-06  1.000E-06  1.000E-06  1.000E-06  1.000E-06  1.000E-06  1.000E-06  1.000E-06  1.000E-06
       1.000E-06  1.000E-06  1.000E-06  1.000E-06  1.000E-06  1.000E-06  1.000E-06  1.000E-06  1.000E-06  1.000E-06  1.000E-06
       1.000E-06  1.000E-06  1.000E-06  1.000E-06  1.000E-06  1.000E-06  1.000E-06  1.000E-06  1.000E-06  1.000E-06  1.000E-06
       1.000E-06  1.000E-06  1.000E-06  1.000E-06  1.000E-06  1.000E-06  1.000E-06  1.000E-06  1.000E-06  1.000E-06  1.000E-06
       1.000E-06  1.000E-06  1.000E-06  1.000E-06  1.000E-06  1.000E-06  1.000E-06  1.000E-06  1.000E-06  1.000E-06  1.000E-06
       1.000E-06  1.000E-06  1.000E-06  1.000E-06  1.000E-06  1.000E-06  1.000E-06  1.000E-06  1.000E-06  1.000E-06  1.000E-06
       1.000E-06  1.000E-06  1.000E-06  1.000E-06  1.000E-06  1.000E-06  1.000E-06  1.000E-06  1.000E-06  1.000E-06  1.000E-06
       1.000E-06  1.000E-06  1.000E-06  1.000E-06  1.000E-06  1.000E-06  1.000E-06  1.000E-06  1.000E-06  1.000E-06  1.000E-06
       1.000E-06  1.000E-06  1.000E-06  1.000E-06  1.000E-06  1.000E-06  1.000E-06  1.000E-06  1.000E-06  1.000E-06  1.000E-06
       1.000E-06  1.000E-06  1.000E-06  1.000E-06  1.000E-06  1.000E-06  1.000E-06  1.000E-06  1.000E-06  1.000E-06  1.000E-06
       1.000E-06  1.000E-06  1.000E-06  1.000E-06  1.000E-06  1.000E-06  1.000E-06  1.000E-06  1.000E-06  1.000E-06  1.000E-06
       1.000E-06  1.000E-06  1.000E-06  1.000E-06  1.000E-06  1.000E-06  1.000E-06  1.000E-06  1.000E-06  1.000E-06  1.000E-06
       1.000E-06  1.000E-06  1.000E-06  1.000E-06  1.000E-06  1.000E-06  1.000E-06  1.000E-06  1.000E-06  1.000E-06  1.000E-06
       1.000E-06  1.000E-06  1.000E-06  1.000E-06  1.000E-06  1.000E-06  1.000E-06  1.000E-06  1.000E-06  1.000E-06  1.000E-06
       1.000E-06  1.000E-06  1.000E-06  1.000E-06  1.000E-06  1.000E-06  1.000E-06  1.000E-06  1.000E-06  1.000E-06  1.000E-06
       1.000E-06  1.000E-06  1.000E-06  1.000E-06  1.000E-06  1.000E-06  1.000E-06  1.000E-06  1.000E-06  1.000E-06  1.000E-06
       1.000E-06  1.000E-06  1.000E-06  1.000E-06  1.000E-06  1.000E-06  1.000E-06  1.000E-06  1.000E-06  1.000E-06  1.000E-06
       1.000E-06  1.000E-06  1.000E-06  1.000E-06  1.000E-06  1.000E-06  1.000E-06  1.000E-06  1.000E-06  1.000E-06  1.000E-06
       1.000E-06  1.000E-06  1.000E-06  1.000E-06  1.000E-06  1.000E-06  1.000E-06  1.000E-06  1.000E-06  1.000E-06  1.000E-06
       1.000E-06  1.000E-06  1.000E-06  1.000E-06  1.000E-06  1.000E-06  1.000E-06  1.000E-06  1.000E-06  1.000E-06  1.000E-06
       1.000E-06  1.000E-06  1.000E-06  1.000E-06  1.000E-06  1.000E-06  1.000E-06  1.000E-06  1.000E-06  1.000E-06  1.000E-06
       1.000E-06  1.000E-06  1.000E-06  1.000E-06  1.000E-06  1.000E-06  1.000E-06  1.000E-06  1.000E-06  1.000E-06  1.000E-06
       1.000E-06  1.000E-06  1.000E-06  1.000E-06  1.000E-06  1.000E-06  1.000E-06  1.000E-06  1.000E-06  1.000E-06  1.000E-06
       1.000E-06  1.000E-06  1.000E-06  1.000E-06  1.000E-06  1.000E-06  1.000E-06  1.000E-06  1.000E-06  1.000E-06  1.000E-06
       1.000E-06  1.000E-06  1.000E-06  1.000E-06  1.000E-06  1.000E-06  1.000E-06  1.000E-06  1.000E-06  1.000E-06  1.000E-06
       1.000E-06  1.000E-06  1.000E-06  1.000E-06  1.000E-06  1.000E-06  1.000E-06  1.000E-06  1.000E-06  1.000E-06  1.000E-06
       1.000E-06  1.000E-06  1.000E-06  1.000E-06  1.000E-06  1.000E-06  1.000E-06  1.000E-06  1.000E-06  1.000E-06  1.000E-06
       1.000E-06  1.000E-06  1.000E-06  1.000E-06  1.000E-06  1.000E-06  1.000E-06  1.000E-06  1.000E-06  1.000E-06  1.000E-06
       1.000E-06  1.000E-06  1.000E-06  1.000E-06  1.000E-06  1.000E-06  1.000E-06  1.000E-06  1.000E-06  1.000E-06  1.000E-06
       1.000E-06  1.000E-06  1.000E-06  1.000E-06  1.000E-06  1.000E-06  1.000E-06  1.000E-06  1.000E-06  1.000E-06  1.000E-06
       1.000E-06  1.000E-06  1.000E-06  1.000E-06  1.000E-06  1.000E-06  1.000E-06  1.000E-06  1.000E-06  1.000E-06  1.000E-06
       1.000E-06  1.000E-06  1.000E-06  1.000E-06  1.000E-06  1.000E-06  1.000E-06  1.000E-06  1.000E-06  1.000E-06  1.000E-06
       1.000E-06  1.000E-06  1.000E-06  1.000E-06  1.000E-06  1.000E-06  1.000E-06  1.000E-06  1.000E-06  1.000E-06  1.000E-06
       1.000E-06  1.000E-06  1.000E-06  1.000E-06  1.000E-06  1.000E-06  1.000E-06  1.000E-06  1.000E-06  1.000E-06  1.000E-06
       1.000E-06  1.000E-06  1.000E-06  1.000E-06  1.000E-06  1.000E-06  1.000E-06  1.000E-06  1.000E-06  1.000E-06  1.000E-06
       1.000E-06  1.000E-06  1.000E-06  1.000E-06  1.000E-06  1.000E-06  1.000E-06  1.000E-06  1.000E-06  1.000E-06  1.000E-06
       1.000E-06  1.000E-06  1.000E-06  1.000E-06  1.000E-06  1.000E-06  1.000E-06  1.000E-06  1.000E-06  1.000E-06  1.000E-06
       1.000E-06  1.000E-06  1.000E-06  1.000E-06  1.000E-06  1.000E-06  1.000E-06  1.000E-06  1.000E-06  1.000E-06  1.000E-06
       1.000E-06  1.000E-06  1.000E-06  1.000E-06  1.000E-06  1.000E-06  1.000E-06  1.000E-06  1.000E-06  1.000E-06  1.000E-06
       1.000E-06  1.000E-06  1.000E-06  1.000E-06  1.000E-06  1.000E-06  1.000E-06  1.000E-06  1.000E-06  1.000E-06  1.000E-06
       1.000E-06  1.000E-06  1.000E-06  1.000E-06  1.000E-06  1.000E-06  1.000E-06  1.000E-06  1.000E-06  1.000E-06  1.000E-06
       1.000E-06  1.000E-06  1.000E-06  1.000E-06  1.000E-06  1.000E-06  1.000E-06  1.000E-06  1.000E-06  1.000E-06  1.000E-06
       1.000E-06  1.000E-06  1.000E-06  1.000E-06  1.000E-06  1.000E-06  1.000E-06  1.000E-06  1.000E-06  1.000E-06  1.000E-06
       1.000E-06  1.000E-06  1.000E-06  1.000E-06  1.000E-06  1.000E-06  1.000E-06  1.000E-06  1.000E-06  1.000E-06  1.000E-06
       1.000E-06  1.000E-06  1.000E-06  1.000E-06  1.000E-06  1.000E-06  1.000E-06  1.000E-06  1.000E-06  1.000E-06  1.000E-06
       1.000E-06  1.000E-06  1.000E-06  1.000E-06  1.000E-06  1.000E-06  1.000E-06  1.000E-06  1.000E-06  1.000E-06  1.000E-06
       1.000E-06  1.000E-06  1.000E-06  1.000E-06  1.000E-06  1.000E-06  1.000E-06  1.000E-06  1.000E-06  1.000E-06  1.000E-06
       1.000E-06  1.000E-06  1.000E-06  1.000E-06  1.000E-06  1.000E-06  1.000E-06  1.000E-06  1.000E-06  1.000E-06  1.000E-06
       1.000E-06  1.000E-06  1.000E-06  1.000E-06  1.000E-06  1.000E-06  1.000E-06  1.000E-06  1.000E-06  1.000E-06  1.000E-06
       1.000E-06  1.000E-06  1.000E-06  1.000E-06  1.000E-06  1.000E-06  1.000E-06  1.000E-06  1.000E-06  1.000E-06  1.000E-06
       1.000E-06  1.000E-06  1.000E-06  1.000E-06  1.000E-06  1.000E-06  1.000E-06  1.000E-06  1.000E-06  1.000E-06  1.000E-06
       1.000E-06  1.000E-06  1.000E-06  1.000E-06  1.000E-06  1.000E-06  1.000E-06  1.000E-06  1.000E-06  1.000E-06  1.000E-06
       1.000E-06  1.000E-06  1.000E-06  1.000E-06  1.000E-06  1.000E-06  1.000E-06  1.000E-06  1.000E-06  1.000E-06  1.000E-06
       1.000E-06  1.000E-06  1.000E-06  1.000E-06  1.000E-06  1.000E-06  1.000E-06  1.000E-06  1.000E-06  1.000E-06  1.000E-06
       1.000E-06  1.000E-06  1.000E-06  1.000E-06  1.000E-06  1.000E-06  1.000E-06  1.000E-06  1.000E-06  1.000E-06  1.000E-06
       1.000E-06  1.000E-06  1.000E-06  1.000E-06  1.000E-06  1.000E-06  1.000E-06  1.000E-06  1.000E-06  1.000E-06  1.000E-06
       1.000E-06  1.000E-06  1.000E-06  1.000E-06  1.000E-06  1.000E-06  1.000E-06  1.000E-06  1.000E-06  1.000E-06  1.000E-06
       1.000E-06  1.000E-06  1.000E-06  1.000E-06  1.000E-06  1.000E-06  1.000E-06  1.000E-06  1.000E-06  1.000E-06  1.000E-06
       1.000E-06  1.000E-06  1.000E-06  1.000E-06  1.000E-06  1.000E-06  1.000E-06  1.000E-06  1.000E-06  1.000E-06  1.000E-06
       1.000E-06  1.000E-06  1.000E-06  1.000E-06  1.000E-06  1.000E-06  1.000E-06  1.000E-06  1.000E-06  1.000E-06  1.000E-06
       1.000E-06  1.000E-06  1.000E-06  1.000E-06  1.000E-06  1.000E-06  1.000E-06  1.000E-06  1.000E-06  1.000E-06  1.000E-06
       1.000E-06  1.000E-06  1.000E-06  1.000E-06  1.000E-06  1.000E-06  1.000E-06  1.000E-06  1.000E-06  1.000E-06  1.000E-06
       1.000E-06  1.000E-06  1.000E-06  1.000E-06  1.000E-06  1.000E-06  1.000E-06  1.000E-06  1.000E-06  1.000E-06  1.000E-06
       1.000E-06  1.000E-06  1.000E-06  1.000E-06  1.000E-06  1.000E-06  1.000E-06  1.000E-06  1.000E-06  1.000E-06  1.000E-06
       1.000E-06  1.000E-06  1.000E-06  1.000E-06  1.000E-06  1.000E-06  1.000E-06  1.000E-06  1.000E-06  1.000E-06  1.000E-06
       1.000E-06  1.000E-06  1.000E-06  1.000E-06  1.000E-06  1.000E-06  1.000E-06  1.000E-06  1.000E-06  1.000E-06  1.000E-06
       1.000E-06  1.000E-06  1.000E-06  1.000E-06  1.000E-06  1.000E-06  1.000E-06  1.000E-06  1.000E-06  1.000E-06  1.000E-06
       1.000E-06  1.000E-06  1.000E-06  1.000E-06  1.000E-06  1.000E-06  1.000E-06  1.000E-06  1.000E-06  1.000E-06  1.000E-06
       1.000E-06  1.000E-06  1.000E-06  1.000E-06  1.000E-06  1.000E-06  1.000E-06  1.000E-06  1.000E-06  1.000E-06  1.000E-06
       1.000E-06  1.000E-06  1.000E-06  1.000E-06  1.000E-06  1.000E-06  1.000E-06  1.000E-06  1.000E-06  1.000E-06  1.000E-06
       1.000E-06  1.000E-06  1.000E-06  1.000E-06  1.000E-06  1.000E-06  1.000E-06  1.000E-06  1.000E-06  1.000E-06  1.000E-06
       1.000E-06  1.000E-06  1.000E-06  1.000E-06  1.000E-06  1.000E-06  1.000E-06  1.000E-06  1.000E-06  1.000E-06  1.000E-06
       1.000E-06  1.000E-06  1.000E-06  1.000E-06  1.000E-06  1.000E-06  1.000E-06  1.000E-06  1.000E-06  1.000E-06  1.000E-06
       1.000E-06  1.000E-06  1.000E-06  1.000E-06  1.000E-06  1.000E-06  1.000E-06  1.000E-06  1.000E-06  1.000E-06  1.000E-06
       1.000E-06  1.000E-06  1.000E-06  1.000E-06  1.000E-06  1.000E-06  1.000E-06  1.000E-06  1.000E-06  1.000E-06  1.000E-06
       1.000E-06  1.000E-06  1.000E-06  1.000E-06  1.000E-06  1.000E-06  1.000E-06  1.000E-06  1.000E-06  1.000E-06  1.000E-06
       1.000E-06  1.000E-06  1.000E-06  1.000E-06  1.000E-06  1.000E-06  1.000E-06  1.000E-06  1.000E-06  1.000E-06  1.000E-06
       1.000E-06  1.000E-06  1.000E-06  1.000E-06  1.000E-06  1.000E-06  1.000E-06  1.000E-06  1.000E-06  1.000E-06  1.000E-06
       1.000E-06  1.000E-06  1.000E-06  1.000E-06  1.000E-06  1.000E-06  1.000E-06  1.000E-06  1.000E-06  1.000E-06  1.000E-06
       1.000E-06  1.000E-06  1.000E-06  1.000E-06  1.000E-06  1.000E-06  1.000E-06  1.000E-06  1.000E-06  1.000E-06  1.000E-06
       1.000E-06  1.000E-06  1.000E-06  1.000E-06  1.000E-06  1.000E-06  1.000E-06  1.000E-06  1.000E-06  1.000E-06  1.000E-06
       1.000E-06  1.000E-06  1.000E-06  1.000E-06  1.000E-06  1.000E-06  1.000E-06  1.000E-06  1.000E-06  1.000E-06  1.000E-06
       1.000E-06  1.000E-06  1.000E-06  1.000E-06  1.000E-06  1.000E-06  1.000E-06  1.000E-06  1.000E-06  1.000E-06  1.000E-06
       1.000E-06  1.000E-06  1.000E-06  1.000E-06  1.000E-06  1.000E-06  1.000E-06  1.000E-06  1.000E-06  1.000E-06  1.000E-06
       1.000E-06  1.000E-06  1.000E-06  1.000E-06  1.000E-06  1.000E-06  1.000E-06  1.000E-06  1.000E-06  1.000E-06  1.000E-06
       1.000E-06  1.000E-06  1.000E-06  1.000E-06  1.000E-06  1.000E-06  1.000E-06  1.000E-06  1.000E-06  1.000E-06  1.000E-06
       1.000E-06  1.000E-06  1.000E-06  1.000E-06  1.000E-06  1.000E-06  1.000E-06  1.000E-06  1.000E-06  1.000E-06  1.000E-06
       1.000E-06  1.000E-06  1.000E-06  1.000E-06  1.000E-06  1.000E-06  1.000E-06  1.000E-06  1.000E-06  1.000E-06  1.000E-06
       1.000E-06  1.000E-06  1.000E-06  1.000E-06  1.000E-06  1.000E-06  1.000E-06  1.000E-06  1.000E-06  1.000E-06  1.000E-06
       1.000E-06  1.000E-06  1.000E-06  1.000E-06  1.000E-06  1.000E-06  1.000E-06  1.000E-06  1.000E-06  1.000E-06  1.000E-06
       1.000E-06  1.000E-06  1.000E-06  1.000E-06  1.000E-06  1.000E-06  1.000E-06  1.000E-06  1.000E-06  1.000E-06  1.000E-06
       1.000E-06  1.000E-06  1.000E-06  1.000E-06  1.000E-06  1.000E-06  1.000E-06  1.000E-06  1.000E-06  1.000E-06  1.000E-06
       1.000E-06  1.000E-06  1.000E-06  1.000E-06  1.000E-06  1.000E-06  1.000E-06  1.000E-06  1.000E-06  1.000E-06  1.000E-06
       1.000E-06  1.000E-06  1.000E-06  1.000E-06  1.000E-06  1.000E-06  1.000E-06  1.000E-06  1.000E-06  1.000E-06  1.000E-06
       1.000E-06  1.000E-06  1.000E-06  1.000E-06  1.000E-06  1.000E-06  1.000E-06  1.000E-06  1.000E-06  1.000E-06  1.000E-06
       1.000E-06  1.000E-06  1.000E-06  1.000E-06  1.000E-06  1.000E-06  1.000E-06  1.000E-06  1.000E-06  1.000E-06  1.000E-06
       1.000E-06  1.000E-06  1.000E-06  1.000E-06  1.000E-06  1.000E-06  1.000E-06  1.000E-06  1.000E-06  1.000E-06  1.000E-06
       1.000E-06  1.000E-06  1.000E-06  1.000E-06  1.000E-06  1.000E-06  1.000E-06  1.000E-06  1.000E-06  1.000E-06  1.000E-06
       1.000E-06  1.000E-06  1.000E-06  1.000E-06  1.000E-06  1.000E-06  1.000E-06  1.000E-06  1.000E-06  1.000E-06  1.000E-06
       1.000E-06  1.000E-06  1.000E-06  1.000E-06  1.000E-06  1.000E-06  1.000E-06  1.000E-06  1.000E-06  1.000E-06  1.000E-06
       1.000E-06  1.000E-06  1.000E-06  1.000E-06  1.000E-06  1.000E-06  1.000E-06  1.000E-06  1.000E-06  1.000E-06  1.000E-06
       1.000E-06  1.000E-06  1.000E-06  1.000E-06  1.000E-06  1.000E-06  1.000E-06  1.000E-06  1.000E-06  1.000E-06  1.000E-06
       1.000E-06  1.000E-06  1.000E-06  1.000E-06  1.000E-06  1.000E-06  1.000E-06  1.000E-06  1.000E-06  1.000E-06  1.000E-06
       1.000E-06  1.000E-06  1.000E-06  1.000E-06  1.000E-06  1.000E-06  1.000E-06  1.000E-06  1.000E-06  1.000E-06  1.000E-06
       1.000E-06  1.000E-06  1.000E-06  1.000E-06  1.000E-06  1.000E-06  1.000E-06  1.000E-06  1.000E-06  1.000E-06  1.000E-06
       1.000E-06  1.000E-06  1.000E-06  1.000E-06  1.000E-06  1.000E-06  1.000E-06  1.000E-06  1.000E-06  1.000E-06  1.000E-06

         SPECIFIC STORAGE FOR LAYER 2
       1.000E-06  1.000E-06  1.000E-06  1.000E-06  1.000E-06  1.000E-06  1.000E-06  1.000E-06  1.000E-06  1.000E-06  1.000E-06
       1.000E-06  1.000E-06  1.000E-06  1.000E-06  1.000E-06  1.000E-06  1.000E-06  1.000E-06  1.000E-06  1.000E-06  1.000E-06
       1.000E-06  1.000E-06  1.000E-06  1.000E-06  1.000E-06  1.000E-06  1.000E-06  1.000E-06  1.000E-06  1.000E-06  1.000E-06
       1.000E-06  1.000E-06  1.000E-06  1.000E-06  1.000E-06  1.000E-06  1.000E-06  1.000E-06  1.000E-06  1.000E-06  1.000E-06
       1.000E-06  1.000E-06  1.000E-06  1.000E-06  1.000E-06  1.000E-06  1.000E-06  1.000E-06  1.000E-06  1.000E-06  1.000E-06
       1.000E-06  1.000E-06  1.000E-06  1.000E-06  1.000E-06  1.000E-06  1.000E-06  1.000E-06  1.000E-06  1.000E-06  1.000E-06
       1.000E-06  1.000E-06  1.000E-06  1.000E-06  1.000E-06  1.000E-06  1.000E-06  1.000E-06  1.000E-06  1.000E-06  1.000E-06
       1.000E-06  1.000E-06  1.000E-06  1.000E-06  1.000E-06  1.000E-06  1.000E-06  1.000E-06  1.000E-06  1.000E-06  1.000E-06
       1.000E-06  1.000E-06  1.000E-06  1.000E-06  1.000E-06  1.000E-06  1.000E-06  1.000E-06  1.000E-06  1.000E-06  1.000E-06
       1.000E-06  1.000E-06  1.000E-06  1.000E-06  1.000E-06  1.000E-06  1.000E-06  1.000E-06  1.000E-06  1.000E-06  1.000E-06
       1.000E-06  1.000E-06  1.000E-06  1.000E-06  1.000E-06  1.000E-06  1.000E-06  1.000E-06  1.000E-06  1.000E-06  1.000E-06
       1.000E-06  1.000E-06  1.000E-06  1.000E-06  1.000E-06  1.000E-06  1.000E-06  1.000E-06  1.000E-06  1.000E-06  1.000E-06
       1.000E-06  1.000E-06  1.000E-06  1.000E-06  1.000E-06  1.000E-06  1.000E-06  1.000E-06  1.000E-06  1.000E-06  1.000E-06
       1.000E-06  1.000E-06  1.000E-06  1.000E-06  1.000E-06  1.000E-06  1.000E-06  1.000E-06  1.000E-06  1.000E-06  1.000E-06
       1.000E-06  1.000E-06  1.000E-06  1.000E-06  1.000E-06  1.000E-06  1.000E-06  1.000E-06  1.000E-06  1.000E-06  1.000E-06
       1.000E-06  1.000E-06  1.000E-06  1.000E-06  1.000E-06  1.000E-06  1.000E-06  1.000E-06  1.000E-06  1.000E-06  1.000E-06
       1.000E-06  1.000E-06  1.000E-06  1.000E-06  1.000E-06  1.000E-06  1.000E-06  1.000E-06  1.000E-06  1.000E-06  1.000E-06
       1.000E-06  1.000E-06  1.000E-06  1.000E-06  1.000E-06  1.000E-06  1.000E-06  1.000E-06  1.000E-06  1.000E-06  1.000E-06
       1.000E-06  1.000E-06  1.000E-06  1.000E-06  1.000E-06  1.000E-06  1.000E-06  1.000E-06  1.000E-06  1.000E-06  1.000E-06
       1.000E-06  1.000E-06  1.000E-06  1.000E-06  1.000E-06  1.000E-06  1.000E-06  1.000E-06  1.000E-06  1.000E-06  1.000E-06
       1.000E-06  1.000E-06  1.000E-06  1.000E-06  1.000E-06  1.000E-06  1.000E-06  1.000E-06  1.000E-06  1.000E-06  1.000E-06
       1.000E-06  1.000E-06  1.000E-06  1.000E-06  1.000E-06  1.000E-06  1.000E-06  1.000E-06  1.000E-06  1.000E-06  1.000E-06
       1.000E-06  1.000E-06  1.000E-06  1.000E-06  1.000E-06  1.000E-06  1.000E-06  1.000E-06  1.000E-06  1.000E-06  1.000E-06
       1.000E-06  1.000E-06  1.000E-06  1.000E-06  1.000E-06  1.000E-06  1.000E-06  1.000E-06  1.000E-06  1.000E-06  1.000E-06
       1.000E-06  1.000E-06  1.000E-06  1.000E-06  1.000E-06  1.000E-06  1.000E-06  1.000E-06  1.000E-06  1.000E-06  1.000E-06
       1.000E-06  1.000E-06  1.000E-06  1.000E-06  1.000E-06  1.000E-06  1.000E-06  1.000E-06  1.000E-06  1.000E-06  1.000E-06
       1.000E-06  1.000E-06  1.000E-06  1.000E-06  1.000E-06  1.000E-06  1.000E-06  1.000E-06  1.000E-06  1.000E-06  1.000E-06
       1.000E-06  1.000E-06  1.000E-06  1.000E-06  1.000E-06  1.000E-06  1.000E-06  1.000E-06  1.000E-06  1.000E-06  1.000E-06
       1.000E-06  1.000E-06  1.000E-06  1.000E-06  1.000E-06  1.000E-06  1.000E-06  1.000E-06  1.000E-06  1.000E-06  1.000E-06
       1.000E-06  1.000E-06  1.000E-06  1.000E-06  1.000E-06  1.000E-06  1.000E-06  1.000E-06  1.000E-06  1.000E-06  1.000E-06
       1.000E-06  1.000E-06  1.000E-06  1.000E-06  1.000E-06  1.000E-06  1.000E-06  1.000E-06  1.000E-06  1.000E-06  1.000E-06
       1.000E-06  1.000E-06  1.000E-06  1.000E-06  1.000E-06  1.000E-06  1.000E-06  1.000E-06  1.000E-06  1.000E-06  1.000E-06
       1.000E-06  1.000E-06  1.000E-06  1.000E-06  1.000E-06  1.000E-06  1.000E-06  1.000E-06  1.000E-06  1.000E-06  1.000E-06
       1.000E-06  1.000E-06  1.000E-06  1.000E-06  1.000E-06  1.000E-06  1.000E-06  1.000E-06  1.000E-06  1.000E-06  1.000E-06
       1.000E-06  1.000E-06  1.000E-06  1.000E-06  1.000E-06  1.000E-06  1.000E-06  1.000E-06  1.000E-06  1.000E-06  1.000E-06
       1.000E-06  1.000E-06  1.000E-06  1.000E-06  1.000E-06  1.000E-06  1.000E-06  1.000E-06  1.000E-06  1.000E-06  1.000E-06
       1.000E-06  1.000E-06  1.000E-06  1.000E-06  1.000E-06  1.000E-06  1.000E-06  1.000E-06  1.000E-06  1.000E-06  1.000E-06
       1.000E-06  1.000E-06  1.000E-06  1.000E-06  1.000E-06  1.000E-06  1.000E-06  1.000E-06  1.000E-06  1.000E-06  1.000E-06
       1.000E-06  1.000E-06  1.000E-06  1.000E-06  1.000E-06  1.000E-06  1.000E-06  1.000E-06  1.000E-06  1.000E-06  1.000E-06
       1.000E-06  1.000E-06  1.000E-06  1.000E-06  1.000E-06  1.000E-06  1.000E-06  1.000E-06  1.000E-06  1.000E-06  1.000E-06
       1.000E-06  1.000E-06  1.000E-06  1.000E-06  1.000E-06  1.000E-06  1.000E-06  1.000E-06  1.000E-06  1.000E-06  1.000E-06
       1.000E-06  1.000E-06  1.000E-06  1.000E-06  1.000E-06  1.000E-06  1.000E-06  1.000E-06  1.000E-06  1.000E-06  1.000E-06
       1.000E-06  1.000E-06  1.000E-06  1.000E-06  1.000E-06  1.000E-06  1.000E-06  1.000E-06  1.000E-06  1.000E-06  1.000E-06
       1.000E-06  1.000E-06  1.000E-06  1.000E-06  1.000E-06  1.000E-06  1.000E-06  1.000E-06  1.000E-06  1.000E-06  1.000E-06
       1.000E-06  1.000E-06  1.000E-06  1.000E-06  1.000E-06  1.000E-06  1.000E-06  1.000E-06  1.000E-06  1.000E-06  1.000E-06
       1.000E-06  1.000E-06  1.000E-06  1.000E-06  1.000E-06  1.000E-06  1.000E-06  1.000E-06  1.000E-06  1.000E-06  1.000E-06
       1.000E-06  1.000E-06  1.000E-06  1.000E-06  1.000E-06  1.000E-06  1.000E-06  1.000E-06  1.000E-06  1.000E-06  1.000E-06
       1.000E-06  1.000E-06  1.000E-06  1.000E-06  1.000E-06  1.000E-06  1.000E-06  1.000E-06  1.000E-06  1.000E-06  1.000E-06
       1.000E-06  1.000E-06  1.000E-06  1.000E-06  1.000E-06  1.000E-06  1.000E-06  1.000E-06  1.000E-06  1.000E-06  1.000E-06
       1.000E-06  1.000E-06  1.000E-06  1.000E-06  1.000E-06  1.000E-06  1.000E-06  1.000E-06  1.000E-06  1.000E-06  1.000E-06
       1.000E-06  1.000E-06  1.000E-06  1.000E-06  1.000E-06  1.000E-06  1.000E-06  1.000E-06  1.000E-06  1.000E-06  1.000E-06
       1.000E-06  1.000E-06  1.000E-06  1.000E-06  1.000E-06  1.000E-06  1.000E-06  1.000E-06  1.000E-06  1.000E-06  1.000E-06
       1.000E-06  1.000E-06  1.000E-06  1.000E-06  1.000E-06  1.000E-06  1.000E-06  1.000E-06  1.000E-06  1.000E-06  1.000E-06
       1.000E-06  1.000E-06  1.000E-06  1.000E-06  1.000E-06  1.000E-06  1.000E-06  1.000E-06  1.000E-06  1.000E-06  1.000E-06
       1.000E-06  1.000E-06  1.000E-06  1.000E-06  1.000E-06  1.000E-06  1.000E-06  1.000E-06  1.000E-06  1.000E-06  1.000E-06
       1.000E-06  1.000E-06  1.000E-06  1.000E-06  1.000E-06  1.000E-06  1.000E-06  1.000E-06  1.000E-06  1.000E-06  1.000E-06
       1.000E-06  1.000E-06  1.000E-06  1.000E-06  1.000E-06  1.000E-06  1.000E-06  1.000E-06  1.000E-06  1.000E-06  1.000E-06
       1.000E-06  1.000E-06  1.000E-06  1.000E-06  1.000E-06  1.000E-06  1.000E-06  1.000E-06  1.000E-06  1.000E-06  1.000E-06
       1.000E-06  1.000E-06  1.000E-06  1.000E-06  1.000E-06  1.000E-06  1.000E-06  1.000E-06  1.000E-06  1.000E-06  1.000E-06
       1.000E-06  1.000E-06  1.000E-06  1.000E-06  1.000E-06  1.000E-06  1.000E-06  1.000E-06  1.000E-06  1.000E-06  1.000E-06
       1.000E-06  1.000E-06  1.000E-06  1.000E-06  1.000E-06  1.000E-06  1.000E-06  1.000E-06  1.000E-06  1.000E-06  1.000E-06
       1.000E-06  1.000E-06  1.000E-06  1.000E-06  1.000E-06  1.000E-06  1.000E-06  1.000E-06  1.000E-06  1.000E-06  1.000E-06
       1.000E-06  1.000E-06  1.000E-06  1.000E-06  1.000E-06  1.000E-06  1.000E-06  1.000E-06  1.000E-06  1.000E-06  1.000E-06
       1.000E-06  1.000E-06  1.000E-06  1.000E-06  1.000E-06  1.000E-06  1.000E-06  1.000E-06  1.000E-06  1.000E-06  1.000E-06
       1.000E-06  1.000E-06  1.000E-06  1.000E-06  1.000E-06  1.000E-06  1.000E-06  1.000E-06  1.000E-06  1.000E-06  1.000E-06
       1.000E-06  1.000E-06  1.000E-06  1.000E-06  1.000E-06  1.000E-06  1.000E-06  1.000E-06  1.000E-06  1.000E-06  1.000E-06
       1.000E-06  1.000E-06  1.000E-06  1.000E-06  1.000E-06  1.000E-06  1.000E-06  1.000E-06  1.000E-06  1.000E-06  1.000E-06
       1.000E-06  1.000E-06  1.000E-06  1.000E-06  1.000E-06  1.000E-06  1.000E-06  1.000E-06  1.000E-06  1.000E-06  1.000E-06
       1.000E-06  1.000E-06  1.000E-06  1.000E-06  1.000E-06  1.000E-06  1.000E-06  1.000E-06  1.000E-06  1.000E-06  1.000E-06
       1.000E-06  1.000E-06  1.000E-06  1.000E-06  1.000E-06  1.000E-06  1.000E-06  1.000E-06  1.000E-06  1.000E-06  1.000E-06
       1.000E-06  1.000E-06  1.000E-06  1.000E-06  1.000E-06  1.000E-06  1.000E-06  1.000E-06  1.000E-06  1.000E-06  1.000E-06
       1.000E-06  1.000E-06  1.000E-06  1.000E-06  1.000E-06  1.000E-06  1.000E-06  1.000E-06  1.000E-06  1.000E-06  1.000E-06
       1.000E-06  1.000E-06  1.000E-06  1.000E-06  1.000E-06  1.000E-06  1.000E-06  1.000E-06  1.000E-06  1.000E-06  1.000E-06
       1.000E-06  1.000E-06  1.000E-06  1.000E-06  1.000E-06  1.000E-06  1.000E-06  1.000E-06  1.000E-06  1.000E-06  1.000E-06
       1.000E-06  1.000E-06  1.000E-06  1.000E-06  1.000E-06  1.000E-06  1.000E-06  1.000E-06  1.000E-06  1.000E-06  1.000E-06
       1.000E-06  1.000E-06  1.000E-06  1.000E-06  1.000E-06  1.000E-06  1.000E-06  1.000E-06  1.000E-06  1.000E-06  1.000E-06
       1.000E-06  1.000E-06  1.000E-06  1.000E-06  1.000E-06  1.000E-06  1.000E-06  1.000E-06  1.000E-06  1.000E-06  1.000E-06
       1.000E-06  1.000E-06  1.000E-06  1.000E-06  1.000E-06  1.000E-06  1.000E-06  1.000E-06  1.000E-06  1.000E-06  1.000E-06
       1.000E-06  1.000E-06  1.000E-06  1.000E-06  1.000E-06  1.000E-06  1.000E-06  1.000E-06  1.000E-06  1.000E-06  1.000E-06
       1.000E-06  1.000E-06  1.000E-06  1.000E-06  1.000E-06  1.000E-06  1.000E-06  1.000E-06  1.000E-06  1.000E-06  1.000E-06
       1.000E-06  1.000E-06  1.000E-06  1.000E-06  1.000E-06  1.000E-06  1.000E-06  1.000E-06  1.000E-06  1.000E-06  1.000E-06
       1.000E-06  1.000E-06  1.000E-06  1.000E-06  1.000E-06  1.000E-06  1.000E-06  1.000E-06  1.000E-06  1.000E-06  1.000E-06
       1.000E-06  1.000E-06  1.000E-06  1.000E-06  1.000E-06  1.000E-06  1.000E-06  1.000E-06  1.000E-06  1.000E-06  1.000E-06
       1.000E-06  1.000E-06  1.000E-06  1.000E-06  1.000E-06  1.000E-06  1.000E-06  1.000E-06  1.000E-06  1.000E-06  1.000E-06
       1.000E-06  1.000E-06  1.000E-06  1.000E-06  1.000E-06  1.000E-06  1.000E-06  1.000E-06  1.000E-06  1.000E-06  1.000E-06
       1.000E-06  1.000E-06  1.000E-06  1.000E-06  1.000E-06  1.000E-06  1.000E-06  1.000E-06  1.000E-06  1.000E-06  1.000E-06
       1.000E-06  1.000E-06  1.000E-06  1.000E-06  1.000E-06  1.000E-06  1.000E-06  1.000E-06  1.000E-06  1.000E-06  1.000E-06
       1.000E-06  1.000E-06  1.000E-06  1.000E-06  1.000E-06  1.000E-06  1.000E-06  1.000E-06  1.000E-06  1.000E-06  1.000E-06
       1.000E-06  1.000E-06  1.000E-06  1.000E-06  1.000E-06  1.000E-06  1.000E-06  1.000E-06  1.000E-06  1.000E-06  1.000E-06
       1.000E-06  1.000E-06  1.000E-06  1.000E-06  1.000E-06  1.000E-06  1.000E-06  1.000E-06  1.000E-06  1.000E-06  1.000E-06
       1.000E-06  1.000E-06  1.000E-06  1.000E-06  1.000E-06  1.000E-06  1.000E-06  1.000E-06  1.000E-06  1.000E-06  1.000E-06
       1.000E-06  1.000E-06  1.000E-06  1.000E-06  1.000E-06  1.000E-06  1.000E-06  1.000E-06  1.000E-06  1.000E-06  1.000E-06
       1.000E-06  1.000E-06  1.000E-06  1.000E-06  1.000E-06  1.000E-06  1.000E-06  1.000E-06  1.000E-06  1.000E-06  1.000E-06
       1.000E-06  1.000E-06  1.000E-06  1.000E-06  1.000E-06  1.000E-06  1.000E-06  1.000E-06  1.000E-06  1.000E-06  1.000E-06
       1.000E-06  1.000E-06  1.000E-06  1.000E-06  1.000E-06  1.000E-06  1.000E-06  1.000E-06  1.000E-06  1.000E-06  1.000E-06
       1.000E-06  1.000E-06  1.000E-06  1.000E-06  1.000E-06  1.000E-06  1.000E-06  1.000E-06  1.000E-06  1.000E-06  1.000E-06
       1.000E-06  1.000E-06  1.000E-06  1.000E-06  1.000E-06  1.000E-06  1.000E-06  1.000E-06  1.000E-06  1.000E-06  1.000E-06
       1.000E-06  1.000E-06  1.000E-06  1.000E-06  1.000E-06  1.000E-06  1.000E-06  1.000E-06  1.000E-06  1.000E-06  1.000E-06
       1.000E-06  1.000E-06  1.000E-06  1.000E-06  1.000E-06  1.000E-06  1.000E-06  1.000E-06  1.000E-06  1.000E-06  1.000E-06
       1.000E-06  1.000E-06  1.000E-06  1.000E-06  1.000E-06  1.000E-06  1.000E-06  1.000E-06  1.000E-06  1.000E-06  1.000E-06
       1.000E-06  1.000E-06  1.000E-06  1.000E-06  1.000E-06  1.000E-06  1.000E-06  1.000E-06  1.000E-06  1.000E-06  1.000E-06
       1.000E-06  1.000E-06  1.000E-06  1.000E-06  1.000E-06  1.000E-06  1.000E-06  1.000E-06  1.000E-06  1.000E-06  1.000E-06
       1.000E-06  1.000E-06  1.000E-06  1.000E-06  1.000E-06  1.000E-06  1.000E-06  1.000E-06  1.000E-06  1.000E-06  1.000E-06
       1.000E-06  1.000E-06  1.000E-06  1.000E-06  1.000E-06  1.000E-06  1.000E-06  1.000E-06  1.000E-06  1.000E-06  1.000E-06
       1.000E-06  1.000E-06  1.000E-06  1.000E-06  1.000E-06  1.000E-06  1.000E-06  1.000E-06  1.000E-06  1.000E-06  1.000E-06
       1.000E-06  1.000E-06  1.000E-06  1.000E-06  1.000E-06  1.000E-06  1.000E-06  1.000E-06  1.000E-06  1.000E-06  1.000E-06
       1.000E-06  1.000E-06  1.000E-06  1.000E-06  1.000E-06  1.000E-06  1.000E-06  1.000E-06  1.000E-06  1.000E-06  1.000E-06
       1.000E-06  1.000E-06  1.000E-06  1.000E-06  1.000E-06  1.000E-06  1.000E-06  1.000E-06  1.000E-06  1.000E-06  1.000E-06
       1.000E-06  1.000E-06  1.000E-06  1.000E-06  1.000E-06  1.000E-06  1.000E-06  1.000E-06  1.000E-06  1.000E-06  1.000E-06
       1.000E-06  1.000E-06  1.000E-06  1.000E-06  1.000E-06  1.000E-06  1.000E-06  1.000E-06  1.000E-06  1.000E-06  1.000E-06
       1.000E-06  1.000E-06  1.000E-06  1.000E-06  1.000E-06  1.000E-06  1.000E-06  1.000E-06  1.000E-06  1.000E-06  1.000E-06
       1.000E-06  1.000E-06  1.000E-06  1.000E-06  1.000E-06  1.000E-06  1.000E-06  1.000E-06  1.000E-06  1.000E-06  1.000E-06
       1.000E-06  1.000E-06  1.000E-06  1.000E-06  1.000E-06  1.000E-06  1.000E-06  1.000E-06  1.000E-06  1.000E-06  1.000E-06
       1.000E-06  1.000E-06  1.000E-06  1.000E-06  1.000E-06  1.000E-06  1.000E-06  1.000E-06  1.000E-06  1.000E-06  1.000E-06
       1.000E-06  1.000E-06  1.000E-06  1.000E-06  1.000E-06  1.000E-06  1.000E-06  1.000E-06  1.000E-06  1.000E-06  1.000E-06
       1.000E-06  1.000E-06  1.000E-06  1.000E-06  1.000E-06  1.000E-06  1.000E-06  1.000E-06  1.000E-06  1.000E-06  1.000E-06
       1.000E-06  1.000E-06  1.000E-06  1.000E-06  1.000E-06  1.000E-06  1.000E-06  1.000E-06  1.000E-06  1.000E-06  1.000E-06
       1.000E-06  1.000E-06  1.000E-06  1.000E-06  1.000E-06  1.000E-06  1.000E-06  1.000E-06  1.000E-06  1.000E-06  1.000E-06
       1.000E-06  1.000E-06  1.000E-06  1.000E-06  1.000E-06  1.000E-06  1.000E-06  1.000E-06  1.000E-06  1.000E-06  1.000E-06
       1.000E-06  1.000E-06  1.000E-06  1.000E-06  1.000E-06  1.000E-06  1.000E-06  1.000E-06  1.000E-06  1.000E-06  1.000E-06
       1.000E-06  1.000E-06  1.000E-06  1.000E-06  1.000E-06  1.000E-06  1.000E-06  1.000E-06  1.000E-06  1.000E-06  1.000E-06
       1.000E-06  1.000E-06  1.000E-06  1.000E-06  1.000E-06  1.000E-06  1.000E-06  1.000E-06  1.000E-06  1.000E-06  1.000E-06
       1.000E-06  1.000E-06  1.000E-06  1.000E-06  1.000E-06  1.000E-06  1.000E-06  1.000E-06  1.000E-06  1.000E-06  1.000E-06
       1.000E-06  1.000E-06  1.000E-06  1.000E-06  1.000E-06  1.000E-06  1.000E-06  1.000E-06  1.000E-06  1.000E-06  1.000E-06
       1.000E-06  1.000E-06  1.000E-06  1.000E-06  1.000E-06  1.000E-06  1.000E-06  1.000E-06  1.000E-06  1.000E-06  1.000E-06
       1.000E-06  1.000E-06  1.000E-06  1.000E-06  1.000E-06  1.000E-06  1.000E-06  1.000E-06  1.000E-06  1.000E-06  1.000E-06
       1.000E-06  1.000E-06  1.000E-06  1.000E-06  1.000E-06  1.000E-06  1.000E-06  1.000E-06  1.000E-06  1.000E-06  1.000E-06
       1.000E-06  1.000E-06  1.000E-06  1.000E-06  1.000E-06  1.000E-06  1.000E-06  1.000E-06  1.000E-06  1.000E-06  1.000E-06
       1.000E-06  1.000E-06  1.000E-06  1.000E-06  1.000E-06  1.000E-06  1.000E-06  1.000E-06  1.000E-06  1.000E-06  1.000E-06
       1.000E-06  1.000E-06  1.000E-06  1.000E-06  1.000E-06  1.000E-06  1.000E-06  1.000E-06  1.000E-06  1.000E-06  1.000E-06
       1.000E-06  1.000E-06  1.000E-06  1.000E-06  1.000E-06  1.000E-06  1.000E-06  1.000E-06  1.000E-06  1.000E-06  1.000E-06
       1.000E-06  1.000E-06  1.000E-06  1.000E-06  1.000E-06  1.000E-06  1.000E-06  1.000E-06  1.000E-06  1.000E-06  1.000E-06
       1.000E-06  1.000E-06  1.000E-06  1.000E-06  1.000E-06  1.000E-06  1.000E-06  1.000E-06  1.000E-06  1.000E-06  1.000E-06
       1.000E-06  1.000E-06  1.000E-06  1.000E-06  1.000E-06  1.000E-06  1.000E-06  1.000E-06  1.000E-06  1.000E-06  1.000E-06
       1.000E-06  1.000E-06  1.000E-06  1.000E-06  1.000E-06  1.000E-06  1.000E-06  1.000E-06  1.000E-06  1.000E-06  1.000E-06
       1.000E-06  1.000E-06  1.000E-06  1.000E-06  1.000E-06  1.000E-06  1.000E-06  1.000E-06  1.000E-06  1.000E-06  1.000E-06
       1.000E-06  1.000E-06  1.000E-06  1.000E-06  1.000E-06  1.000E-06  1.000E-06  1.000E-06  1.000E-06  1.000E-06  1.000E-06
       1.000E-06  1.000E-06  1.000E-06  1.000E-06  1.000E-06  1.000E-06  1.000E-06  1.000E-06  1.000E-06  1.000E-06  1.000E-06
       1.000E-06  1.000E-06  1.000E-06  1.000E-06  1.000E-06  1.000E-06  1.000E-06  1.000E-06  1.000E-06  1.000E-06  1.000E-06
       1.000E-06  1.000E-06  1.000E-06  1.000E-06  1.000E-06  1.000E-06  1.000E-06  1.000E-06  1.000E-06  1.000E-06  1.000E-06
       1.000E-06  1.000E-06  1.000E-06  1.000E-06  1.000E-06  1.000E-06  1.000E-06  1.000E-06  1.000E-06  1.000E-06  1.000E-06
       1.000E-06  1.000E-06  1.000E-06  1.000E-06  1.000E-06  1.000E-06  1.000E-06  1.000E-06  1.000E-06  1.000E-06  1.000E-06
       1.000E-06  1.000E-06  1.000E-06  1.000E-06  1.000E-06  1.000E-06  1.000E-06  1.000E-06  1.000E-06  1.000E-06  1.000E-06
       1.000E-06  1.000E-06  1.000E-06  1.000E-06  1.000E-06  1.000E-06  1.000E-06  1.000E-06  1.000E-06  1.000E-06  1.000E-06
       1.000E-06  1.000E-06  1.000E-06  1.000E-06  1.000E-06  1.000E-06  1.000E-06  1.000E-06  1.000E-06  1.000E-06  1.000E-06
       1.000E-06  1.000E-06  1.000E-06  1.000E-06  1.000E-06  1.000E-06  1.000E-06  1.000E-06  1.000E-06  1.000E-06  1.000E-06
       1.000E-06  1.000E-06  1.000E-06  1.000E-06  1.000E-06  1.000E-06  1.000E-06  1.000E-06  1.000E-06  1.000E-06  1.000E-06
       1.000E-06  1.000E-06  1.000E-06  1.000E-06  1.000E-06  1.000E-06  1.000E-06  1.000E-06  1.000E-06  1.000E-06  1.000E-06
       1.000E-06  1.000E-06  1.000E-06  1.000E-06  1.000E-06  1.000E-06  1.000E-06  1.000E-06  1.000E-06  1.000E-06  1.000E-06
       1.000E-06  1.000E-06  1.000E-06  1.000E-06  1.000E-06  1.000E-06  1.000E-06  1.000E-06  1.000E-06  1.000E-06  1.000E-06
       1.000E-06  1.000E-06  1.000E-06  1.000E-06  1.000E-06  1.000E-06  1.000E-06  1.000E-06  1.000E-06  1.000E-06  1.000E-06
       1.000E-06  1.000E-06  1.000E-06  1.000E-06  1.000E-06  1.000E-06  1.000E-06  1.000E-06  1.000E-06  1.000E-06  1.000E-06
       1.000E-06  1.000E-06  1.000E-06  1.000E-06  1.000E-06  1.000E-06  1.000E-06  1.000E-06  1.000E-06  1.000E-06  1.000E-06
       1.000E-06  1.000E-06  1.000E-06  1.000E-06  1.000E-06  1.000E-06  1.000E-06  1.000E-06  1.000E-06  1.000E-06  1.000E-06
       1.000E-06  1.000E-06  1.000E-06  1.000E-06  1.000E-06  1.000E-06  1.000E-06  1.000E-06  1.000E-06  1.000E-06  1.000E-06
       1.000E-06  1.000E-06  1.000E-06  1.000E-06  1.000E-06  1.000E-06  1.000E-06  1.000E-06  1.000E-06  1.000E-06  1.000E-06
       1.000E-06  1.000E-06  1.000E-06  1.000E-06  1.000E-06  1.000E-06  1.000E-06  1.000E-06  1.000E-06  1.000E-06  1.000E-06
       1.000E-06  1.000E-06  1.000E-06  1.000E-06  1.000E-06  1.000E-06  1.000E-06  1.000E-06  1.000E-06  1.000E-06  1.000E-06
       1.000E-06  1.000E-06  1.000E-06  1.000E-06  1.000E-06  1.000E-06  1.000E-06  1.000E-06  1.000E-06  1.000E-06  1.000E-06
       1.000E-06  1.000E-06  1.000E-06  1.000E-06  1.000E-06  1.000E-06  1.000E-06  1.000E-06  1.000E-06  1.000E-06  1.000E-06
       1.000E-06  1.000E-06  1.000E-06  1.000E-06  1.000E-06  1.000E-06  1.000E-06  1.000E-06  1.000E-06  1.000E-06  1.000E-06
       1.000E-06  1.000E-06  1.000E-06  1.000E-06  1.000E-06  1.000E-06  1.000E-06  1.000E-06  1.000E-06  1.000E-06  1.000E-06
       1.000E-06  1.000E-06  1.000E-06  1.000E-06  1.000E-06  1.000E-06  1.000E-06  1.000E-06  1.000E-06  1.000E-06  1.000E-06
       1.000E-06  1.000E-06  1.000E-06  1.000E-06  1.000E-06  1.000E-06  1.000E-06  1.000E-06  1.000E-06  1.000E-06  1.000E-06
       1.000E-06  1.000E-06  1.000E-06  1.000E-06  1.000E-06  1.000E-06  1.000E-06  1.000E-06  1.000E-06  1.000E-06  1.000E-06
       1.000E-06  1.000E-06  1.000E-06  1.000E-06  1.000E-06  1.000E-06  1.000E-06  1.000E-06  1.000E-06  1.000E-06  1.000E-06
       1.000E-06  1.000E-06  1.000E-06  1.000E-06  1.000E-06  1.000E-06  1.000E-06  1.000E-06  1.000E-06  1.000E-06  1.000E-06
       1.000E-06  1.000E-06  1.000E-06  1.000E-06  1.000E-06  1.000E-06  1.000E-06  1.000E-06  1.000E-06  1.000E-06  1.000E-06
       1.000E-06  1.000E-06  1.000E-06  1.000E-06  1.000E-06  1.000E-06  1.000E-06  1.000E-06  1.000E-06  1.000E-06  1.000E-06
       1.000E-06  1.000E-06  1.000E-06  1.000E-06  1.000E-06  1.000E-06  1.000E-06  1.000E-06  1.000E-06  1.000E-06  1.000E-06
       1.000E-06  1.000E-06  1.000E-06  1.000E-06  1.000E-06  1.000E-06  1.000E-06  1.000E-06  1.000E-06  1.000E-06  1.000E-06
       1.000E-06  1.000E-06  1.000E-06  1.000E-06  1.000E-06  1.000E-06  1.000E-06  1.000E-06  1.000E-06  1.000E-06  1.000E-06
       1.000E-06  1.000E-06  1.000E-06  1.000E-06  1.000E-06  1.000E-06  1.000E-06  1.000E-06  1.000E-06  1.000E-06  1.000E-06
       1.000E-06  1.000E-06  1.000E-06  1.000E-06  1.000E-06  1.000E-06  1.000E-06  1.000E-06  1.000E-06  1.000E-06  1.000E-06
       1.000E-06  1.000E-06  1.000E-06  1.000E-06  1.000E-06  1.000E-06  1.000E-06  1.000E-06  1.000E-06  1.000E-06  1.000E-06
       1.000E-06  1.000E-06  1.000E-06  1.000E-06  1.000E-06  1.000E-06  1.000E-06  1.000E-06  1.000E-06  1.000E-06  1.000E-06
       1.000E-06  1.000E-06  1.000E-06  1.000E-06  1.000E-06  1.000E-06  1.000E-06  1.000E-06  1.000E-06  1.000E-06  1.000E-06
       1.000E-06  1.000E-06  1.000E-06  1.000E-06  1.000E-06  1.000E-06  1.000E-06  1.000E-06  1.000E-06  1.000E-06  1.000E-06
       1.000E-06  1.000E-06  1.000E-06  1.000E-06  1.000E-06  1.000E-06  1.000E-06  1.000E-06  1.000E-06  1.000E-06  1.000E-06
       1.000E-06  1.000E-06  1.000E-06  1.000E-06  1.000E-06  1.000E-06  1.000E-06  1.000E-06  1.000E-06  1.000E-06  1.000E-06
       1.000E-06  1.000E-06  1.000E-06  1.000E-06  1.000E-06  1.000E-06  1.000E-06  1.000E-06  1.000E-06  1.000E-06  1.000E-06
       1.000E-06  1.000E-06  1.000E-06  1.000E-06  1.000E-06  1.000E-06  1.000E-06  1.000E-06  1.000E-06  1.000E-06  1.000E-06
       1.000E-06  1.000E-06  1.000E-06  1.000E-06  1.000E-06  1.000E-06  1.000E-06  1.000E-06  1.000E-06  1.000E-06  1.000E-06
       1.000E-06  1.000E-06  1.000E-06  1.000E-06  1.000E-06  1.000E-06  1.000E-06  1.000E-06  1.000E-06  1.000E-06  1.000E-06
       1.000E-06  1.000E-06  1.000E-06  1.000E-06  1.000E-06  1.000E-06  1.000E-06  1.000E-06  1.000E-06  1.000E-06  1.000E-06
       1.000E-06  1.000E-06  1.000E-06  1.000E-06  1.000E-06  1.000E-06  1.000E-06  1.000E-06  1.000E-06  1.000E-06  1.000E-06
       1.000E-06  1.000E-06  1.000E-06  1.000E-06  1.000E-06  1.000E-06  1.000E-06  1.000E-06  1.000E-06  1.000E-06  1.000E-06
       1.000E-06  1.000E-06  1.000E-06  1.000E-06  1.000E-06  1.000E-06  1.000E-06  1.000E-06  1.000E-06  1.000E-06  1.000E-06
       1.000E-06  1.000E-06  1.000E-06  1.000E-06  1.000E-06  1.000E-06  1.000E-06  1.000E-06  1.000E-06  1.000E-06  1.000E-06
       1.000E-06  1.000E-06  1.000E-06  1.000E-06  1.000E-06  1.000E-06  1.000E-06  1.000E-06  1.000E-06  1.000E-06  1.000E-06
       1.000E-06  1.000E-06  1.000E-06  1.000E-06  1.000E-06  1.000E-06  1.000E-06  1.000E-06  1.000E-06  1.000E-06  1.000E-06
       1.000E-06  1.000E-06  1.000E-06  1.000E-06  1.000E-06  1.000E-06  1.000E-06  1.000E-06  1.000E-06  1.000E-06  1.000E-06
       1.000E-06  1.000E-06  1.000E-06  1.000E-06  1.000E-06  1.000E-06  1.000E-06  1.000E-06  1.000E-06  1.000E-06  1.000E-06
       1.000E-06  1.000E-06  1.000E-06  1.000E-06  1.000E-06  1.000E-06  1.000E-06  1.000E-06  1.000E-06  1.000E-06  1.000E-06
       1.000E-06  1.000E-06  1.000E-06  1.000E-06  1.000E-06  1.000E-06  1.000E-06  1.000E-06  1.000E-06  1.000E-06  1.000E-06
       1.000E-06  1.000E-06  1.000E-06  1.000E-06  1.000E-06  1.000E-06  1.000E-06  1.000E-06  1.000E-06  1.000E-06  1.000E-06
       1.000E-06  1.000E-06  1.000E-06  1.000E-06  1.000E-06  1.000E-06  1.000E-06  1.000E-06  1.000E-06  1.000E-06  1.000E-06
       1.000E-06  1.000E-06  1.000E-06  1.000E-06  1.000E-06  1.000E-06  1.000E-06  1.000E-06  1.000E-06  1.000E-06  1.000E-06
       1.000E-06  1.000E-06  1.000E-06  1.000E-06  1.000E-06  1.000E-06  1.000E-06  1.000E-06  1.000E-06  1.000E-06  1.000E-06
       1.000E-06  1.000E-06  1.000E-06  1.000E-06  1.000E-06  1.000E-06  1.000E-06  1.000E-06  1.000E-06  1.000E-06  1.000E-06
       1.000E-06  1.000E-06  1.000E-06  1.000E-06  1.000E-06  1.000E-06  1.000E-06  1.000E-06  1.000E-06  1.000E-06  1.000E-06
       1.000E-06  1.000E-06  1.000E-06  1.000E-06  1.000E-06  1.000E-06  1.000E-06  1.000E-06  1.000E-06  1.000E-06  1.000E-06
       1.000E-06  1.000E-06  1.000E-06  1.000E-06  1.000E-06  1.000E-06  1.000E-06  1.000E-06  1.000E-06  1.000E-06  1.000E-06
       1.000E-06  1.000E-06  1.000E-06  1.000E-06  1.000E-06  1.000E-06  1.000E-06  1.000E-06  1.000E-06  1.000E-06  1.000E-06
       1.000E-06  1.000E-06  1.000E-06  1.000E-06  1.000E-06  1.000E-06  1.000E-06  1.000E-06  1.000E-06  1.000E-06  1.000E-06
       1.000E-06  1.000E-06  1.000E-06  1.000E-06  1.000E-06  1.000E-06  1.000E-06  1.000E-06  1.000E-06  1.000E-06  1.000E-06
       1.000E-06  1.000E-06  1.000E-06  1.000E-06  1.000E-06  1.000E-06  1.000E-06  1.000E-06  1.000E-06  1.000E-06  1.000E-06
       1.000E-06  1.000E-06  1.000E-06  1.000E-06  1.000E-06  1.000E-06  1.000E-06  1.000E-06  1.000E-06  1.000E-06  1.000E-06
       1.000E-06  1.000E-06  1.000E-06  1.000E-06  1.000E-06  1.000E-06  1.000E-06  1.000E-06  1.000E-06  1.000E-06  1.000E-06
       1.000E-06  1.000E-06  1.000E-06  1.000E-06  1.000E-06  1.000E-06  1.000E-06  1.000E-06  1.000E-06  1.000E-06  1.000E-06
       1.000E-06  1.000E-06  1.000E-06  1.000E-06  1.000E-06  1.000E-06  1.000E-06  1.000E-06  1.000E-06  1.000E-06  1.000E-06
       1.000E-06  1.000E-06  1.000E-06  1.000E-06  1.000E-06  1.000E-06  1.000E-06  1.000E-06  1.000E-06  1.000E-06  1.000E-06
       1.000E-06  1.000E-06  1.000E-06  1.000E-06  1.000E-06  1.000E-06  1.000E-06  1.000E-06  1.000E-06  1.000E-06  1.000E-06
       1.000E-06  1.000E-06  1.000E-06  1.000E-06  1.000E-06  1.000E-06  1.000E-06  1.000E-06  1.000E-06  1.000E-06  1.000E-06
       1.000E-06  1.000E-06  1.000E-06  1.000E-06  1.000E-06  1.000E-06  1.000E-06  1.000E-06  1.000E-06  1.000E-06  1.000E-06
       1.000E-06  1.000E-06  1.000E-06  1.000E-06  1.000E-06  1.000E-06  1.000E-06  1.000E-06  1.000E-06  1.000E-06  1.000E-06
       1.000E-06  1.000E-06  1.000E-06  1.000E-06  1.000E-06  1.000E-06  1.000E-06  1.000E-06  1.000E-06  1.000E-06  1.000E-06
       1.000E-06  1.000E-06  1.000E-06  1.000E-06  1.000E-06  1.000E-06  1.000E-06  1.000E-06  1.000E-06  1.000E-06  1.000E-06
       1.000E-06  1.000E-06  1.000E-06  1.000E-06  1.000E-06  1.000E-06  1.000E-06  1.000E-06  1.000E-06  1.000E-06  1.000E-06
       1.000E-06  1.000E-06  1.000E-06  1.000E-06  1.000E-06  1.000E-06  1.000E-06  1.000E-06  1.000E-06  1.000E-06  1.000E-06
       1.000E-06  1.000E-06  1.000E-06  1.000E-06  1.000E-06  1.000E-06  1.000E-06  1.000E-06  1.000E-06  1.000E-06  1.000E-06
       1.000E-06  1.000E-06  1.000E-06  1.000E-06  1.000E-06  1.000E-06  1.000E-06  1.000E-06  1.000E-06  1.000E-06  1.000E-06
       1.000E-06  1.000E-06  1.000E-06  1.000E-06  1.000E-06  1.000E-06  1.000E-06  1.000E-06  1.000E-06  1.000E-06  1.000E-06
       1.000E-06  1.000E-06  1.000E-06  1.000E-06  1.000E-06  1.000E-06  1.000E-06  1.000E-06  1.000E-06  1.000E-06  1.000E-06
       1.000E-06  1.000E-06  1.000E-06  1.000E-06  1.000E-06  1.000E-06  1.000E-06  1.000E-06  1.000E-06  1.000E-06  1.000E-06
       1.000E-06  1.000E-06  1.000E-06  1.000E-06  1.000E-06  1.000E-06  1.000E-06  1.000E-06  1.000E-06  1.000E-06  1.000E-06
       1.000E-06  1.000E-06  1.000E-06  1.000E-06  1.000E-06  1.000E-06  1.000E-06  1.000E-06  1.000E-06  1.000E-06  1.000E-06
       1.000E-06  1.000E-06  1.000E-06  1.000E-06  1.000E-06  1.000E-06  1.000E-06  1.000E-06  1.000E-06  1.000E-06  1.000E-06
       1.000E-06  1.000E-06  1.000E-06  1.000E-06  1.000E-06  1.000E-06  1.000E-06  1.000E-06  1.000E-06  1.000E-06  1.000E-06
       1.000E-06  1.000E-06  1.000E-06  1.000E-06  1.000E-06  1.000E-06  1.000E-06  1.000E-06  1.000E-06  1.000E-06  1.000E-06
       1.000E-06  1.000E-06  1.000E-06  1.000E-06  1.000E-06  1.000E-06  1.000E-06  1.000E-06  1.000E-06  1.000E-06  1.000E-06
       1.000E-06  1.000E-06  1.000E-06  1.000E-06  1.000E-06  1.000E-06  1.000E-06  1.000E-06  1.000E-06  1.000E-06  1.000E-06
       1.000E-06  1.000E-06  1.000E-06  1.000E-06  1.000E-06  1.000E-06  1.000E-06  1.000E-06  1.000E-06  1.000E-06  1.000E-06
       1.000E-06  1.000E-06  1.000E-06  1.000E-06  1.000E-06  1.000E-06  1.000E-06  1.000E-06  1.000E-06  1.000E-06  1.000E-06
       1.000E-06  1.000E-06  1.000E-06  1.000E-06  1.000E-06  1.000E-06  1.000E-06  1.000E-06  1.000E-06  1.000E-06  1.000E-06
       1.000E-06  1.000E-06  1.000E-06  1.000E-06  1.000E-06  1.000E-06  1.000E-06  1.000E-06  1.000E-06  1.000E-06  1.000E-06
       1.000E-06  1.000E-06  1.000E-06  1.000E-06  1.000E-06  1.000E-06  1.000E-06  1.000E-06  1.000E-06  1.000E-06  1.000E-06
       1.000E-06  1.000E-06  1.000E-06  1.000E-06  1.000E-06  1.000E-06  1.000E-06  1.000E-06  1.000E-06  1.000E-06  1.000E-06
       1.000E-06  1.000E-06  1.000E-06  1.000E-06  1.000E-06  1.000E-06  1.000E-06  1.000E-06  1.000E-06  1.000E-06  1.000E-06
       1.000E-06  1.000E-06  1.000E-06  1.000E-06  1.000E-06  1.000E-06  1.000E-06  1.000E-06  1.000E-06  1.000E-06  1.000E-06
       1.000E-06  1.000E-06  1.000E-06  1.000E-06  1.000E-06  1.000E-06  1.000E-06  1.000E-06  1.000E-06  1.000E-06  1.000E-06
       1.000E-06  1.000E-06  1.000E-06  1.000E-06  1.000E-06  1.000E-06  1.000E-06  1.000E-06  1.000E-06  1.000E-06  1.000E-06
       1.000E-06  1.000E-06  1.000E-06  1.000E-06  1.000E-06  1.000E-06  1.000E-06  1.000E-06  1.000E-06  1.000E-06  1.000E-06
       1.000E-06  1.000E-06  1.000E-06  1.000E-06  1.000E-06  1.000E-06  1.000E-06  1.000E-06  1.000E-06  1.000E-06  1.000E-06
       1.000E-06  1.000E-06  1.000E-06  1.000E-06  1.000E-06  1.000E-06  1.000E-06  1.000E-06  1.000E-06  1.000E-06  1.000E-06
       1.000E-06  1.000E-06  1.000E-06  1.000E-06  1.000E-06  1.000E-06  1.000E-06  1.000E-06  1.000E-06  1.000E-06  1.000E-06
       1.000E-06  1.000E-06  1.000E-06  1.000E-06  1.000E-06  1.000E-06  1.000E-06  1.000E-06  1.000E-06  1.000E-06  1.000E-06
       1.000E-06  1.000E-06  1.000E-06  1.000E-06  1.000E-06  1.000E-06  1.000E-06  1.000E-06  1.000E-06  1.000E-06  1.000E-06
       1.000E-06  1.000E-06  1.000E-06  1.000E-06  1.000E-06  1.000E-06  1.000E-06  1.000E-06  1.000E-06  1.000E-06  1.000E-06
       1.000E-06  1.000E-06  1.000E-06  1.000E-06  1.000E-06  1.000E-06  1.000E-06  1.000E-06  1.000E-06  1.000E-06  1.000E-06
       1.000E-06  1.000E-06  1.000E-06  1.000E-06  1.000E-06  1.000E-06  1.000E-06  1.000E-06  1.000E-06  1.000E-06  1.000E-06
       1.000E-06  1.000E-06  1.000E-06  1.000E-06  1.000E-06  1.000E-06  1.000E-06  1.000E-06  1.000E-06  1.000E-06  1.000E-06
       1.000E-06  1.000E-06  1.000E-06  1.000E-06  1.000E-06  1.000E-06  1.000E-06  1.000E-06  1.000E-06  1.000E-06  1.000E-06
       1.000E-06  1.000E-06  1.000E-06  1.000E-06  1.000E-06  1.000E-06  1.000E-06  1.000E-06  1.000E-06  1.000E-06  1.000E-06
       1.000E-06  1.000E-06  1.000E-06  1.000E-06  1.000E-06  1.000E-06  1.000E-06  1.000E-06  1.000E-06  1.000E-06  1.000E-06
       1.000E-06  1.000E-06  1.000E-06  1.000E-06  1.000E-06  1.000E-06  1.000E-06  1.000E-06  1.000E-06  1.000E-06  1.000E-06
       1.000E-06  1.000E-06  1.000E-06  1.000E-06  1.000E-06  1.000E-06  1.000E-06  1.000E-06  1.000E-06  1.000E-06  1.000E-06
       1.000E-06  1.000E-06  1.000E-06  1.000E-06  1.000E-06  1.000E-06  1.000E-06  1.000E-06  1.000E-06  1.000E-06  1.000E-06
       1.000E-06  1.000E-06  1.000E-06  1.000E-06  1.000E-06  1.000E-06  1.000E-06  1.000E-06  1.000E-06  1.000E-06  1.000E-06
       1.000E-06  1.000E-06  1.000E-06  1.000E-06  1.000E-06  1.000E-06  1.000E-06  1.000E-06  1.000E-06  1.000E-06  1.000E-06
       1.000E-06  1.000E-06  1.000E-06  1.000E-06  1.000E-06  1.000E-06  1.000E-06  1.000E-06  1.000E-06  1.000E-06  1.000E-06
       1.000E-06  1.000E-06  1.000E-06  1.000E-06  1.000E-06  1.000E-06  1.000E-06  1.000E-06  1.000E-06  1.000E-06  1.000E-06
       1.000E-06  1.000E-06  1.000E-06  1.000E-06  1.000E-06  1.000E-06  1.000E-06  1.000E-06  1.000E-06  1.000E-06  1.000E-06
       1.000E-06  1.000E-06  1.000E-06  1.000E-06  1.000E-06  1.000E-06  1.000E-06  1.000E-06  1.000E-06  1.000E-06  1.000E-06
       1.000E-06  1.000E-06  1.000E-06  1.000E-06  1.000E-06  1.000E-06  1.000E-06  1.000E-06  1.000E-06  1.000E-06  1.000E-06
       1.000E-06  1.000E-06  1.000E-06  1.000E-06  1.000E-06  1.000E-06  1.000E-06  1.000E-06  1.000E-06  1.000E-06  1.000E-06
       1.000E-06  1.000E-06  1.000E-06  1.000E-06  1.000E-06  1.000E-06  1.000E-06  1.000E-06  1.000E-06  1.000E-06  1.000E-06
       1.000E-06  1.000E-06  1.000E-06  1.000E-06  1.000E-06  1.000E-06  1.000E-06  1.000E-06  1.000E-06  1.000E-06  1.000E-06
       1.000E-06  1.000E-06  1.000E-06  1.000E-06  1.000E-06  1.000E-06  1.000E-06  1.000E-06  1.000E-06  1.000E-06  1.000E-06
       1.000E-06  1.000E-06  1.000E-06  1.000E-06  1.000E-06  1.000E-06  1.000E-06  1.000E-06  1.000E-06  1.000E-06  1.000E-06
       1.000E-06  1.000E-06  1.000E-06  1.000E-06  1.000E-06  1.000E-06  1.000E-06  1.000E-06  1.000E-06  1.000E-06  1.000E-06
       1.000E-06  1.000E-06  1.000E-06  1.000E-06  1.000E-06  1.000E-06  1.000E-06  1.000E-06  1.000E-06  1.000E-06  1.000E-06
       1.000E-06  1.000E-06  1.000E-06  1.000E-06  1.000E-06  1.000E-06  1.000E-06  1.000E-06  1.000E-06  1.000E-06  1.000E-06
       1.000E-06  1.000E-06  1.000E-06  1.000E-06  1.000E-06  1.000E-06  1.000E-06  1.000E-06  1.000E-06  1.000E-06  1.000E-06
       1.000E-06  1.000E-06  1.000E-06  1.000E-06  1.000E-06  1.000E-06  1.000E-06  1.000E-06  1.000E-06  1.000E-06  1.000E-06
       1.000E-06  1.000E-06  1.000E-06  1.000E-06  1.000E-06  1.000E-06  1.000E-06  1.000E-06  1.000E-06  1.000E-06  1.000E-06
       1.000E-06  1.000E-06  1.000E-06  1.000E-06  1.000E-06  1.000E-06  1.000E-06  1.000E-06  1.000E-06  1.000E-06  1.000E-06
       1.000E-06  1.000E-06  1.000E-06  1.000E-06  1.000E-06  1.000E-06  1.000E-06  1.000E-06  1.000E-06  1.000E-06  1.000E-06
       1.000E-06  1.000E-06  1.000E-06  1.000E-06  1.000E-06  1.000E-06  1.000E-06  1.000E-06  1.000E-06  1.000E-06  1.000E-06
       1.000E-06  1.000E-06  1.000E-06  1.000E-06  1.000E-06  1.000E-06  1.000E-06  1.000E-06  1.000E-06  1.000E-06  1.000E-06
       1.000E-06  1.000E-06  1.000E-06  1.000E-06  1.000E-06  1.000E-06  1.000E-06  1.000E-06  1.000E-06  1.000E-06  1.000E-06
       1.000E-06  1.000E-06  1.000E-06  1.000E-06  1.000E-06  1.000E-06  1.000E-06  1.000E-06  1.000E-06  1.000E-06  1.000E-06
       1.000E-06  1.000E-06  1.000E-06  1.000E-06  1.000E-06  1.000E-06  1.000E-06  1.000E-06  1.000E-06  1.000E-06  1.000E-06
       1.000E-06  1.000E-06  1.000E-06  1.000E-06  1.000E-06  1.000E-06  1.000E-06  1.000E-06  1.000E-06  1.000E-06  1.000E-06
       1.000E-06  1.000E-06  1.000E-06  1.000E-06  1.000E-06  1.000E-06  1.000E-06  1.000E-06  1.000E-06  1.000E-06  1.000E-06

         SPECIFIC STORAGE FOR LAYER 3
       1.000E-06  1.000E-06  1.000E-06  1.000E-06  1.000E-06  1.000E-06  1.000E-06  1.000E-06  1.000E-06  1.000E-06  1.000E-06
       1.000E-06  1.000E-06  1.000E-06  1.000E-06  1.000E-06  1.000E-06  1.000E-06  1.000E-06  1.000E-06  1.000E-06  1.000E-06
       1.000E-06  1.000E-06  1.000E-06  1.000E-06  1.000E-06  1.000E-06  1.000E-06  1.000E-06  1.000E-06  1.000E-06  1.000E-06
       1.000E-06  1.000E-06  1.000E-06  1.000E-06  1.000E-06  1.000E-06  1.000E-06  1.000E-06  1.000E-06  1.000E-06  1.000E-06
       1.000E-06  1.000E-06  1.000E-06  1.000E-06  1.000E-06  1.000E-06  1.000E-06  1.000E-06  1.000E-06  1.000E-06  1.000E-06
       1.000E-06  1.000E-06  1.000E-06  1.000E-06  1.000E-06  1.000E-06  1.000E-06  1.000E-06  1.000E-06  1.000E-06  1.000E-06
       1.000E-06  1.000E-06  1.000E-06  1.000E-06  1.000E-06  1.000E-06  1.000E-06  1.000E-06  1.000E-06  1.000E-06  1.000E-06
       1.000E-06  1.000E-06  1.000E-06  1.000E-06  1.000E-06  1.000E-06  1.000E-06  1.000E-06  1.000E-06  1.000E-06  1.000E-06
       1.000E-06  1.000E-06  1.000E-06  1.000E-06  1.000E-06  1.000E-06  1.000E-06  1.000E-06  1.000E-06  1.000E-06  1.000E-06
       1.000E-06  1.000E-06  1.000E-06  1.000E-06  1.000E-06  1.000E-06  1.000E-06  1.000E-06  1.000E-06  1.000E-06  1.000E-06
       1.000E-06  1.000E-06  1.000E-06  1.000E-06  1.000E-06  1.000E-06  1.000E-06  1.000E-06  1.000E-06  1.000E-06  1.000E-06
       1.000E-06  1.000E-06  1.000E-06  1.000E-06  1.000E-06  1.000E-06  1.000E-06  1.000E-06  1.000E-06  1.000E-06  1.000E-06
       1.000E-06  1.000E-06  1.000E-06  1.000E-06  1.000E-06  1.000E-06  1.000E-06  1.000E-06  1.000E-06  1.000E-06  1.000E-06
       1.000E-06  1.000E-06  1.000E-06  1.000E-06  1.000E-06  1.000E-06  1.000E-06  1.000E-06  1.000E-06  1.000E-06  1.000E-06
       1.000E-06  1.000E-06  1.000E-06  1.000E-06  1.000E-06  1.000E-06  1.000E-06  1.000E-06  1.000E-06  1.000E-06  1.000E-06
       1.000E-06  1.000E-06  1.000E-06  1.000E-06  1.000E-06  1.000E-06  1.000E-06  1.000E-06  1.000E-06  1.000E-06  1.000E-06
       1.000E-06  1.000E-06  1.000E-06  1.000E-06  1.000E-06  1.000E-06  1.000E-06  1.000E-06  1.000E-06  1.000E-06  1.000E-06
       1.000E-06  1.000E-06  1.000E-06  1.000E-06  1.000E-06  1.000E-06  1.000E-06  1.000E-06  1.000E-06  1.000E-06  1.000E-06
       1.000E-06  1.000E-06  1.000E-06  1.000E-06  1.000E-06  1.000E-06  1.000E-06  1.000E-06  1.000E-06  1.000E-06  1.000E-06
       1.000E-06  1.000E-06  1.000E-06  1.000E-06  1.000E-06  1.000E-06  1.000E-06  1.000E-06  1.000E-06  1.000E-06  1.000E-06
       1.000E-06  1.000E-06  1.000E-06  1.000E-06  1.000E-06  1.000E-06  1.000E-06  1.000E-06  1.000E-06  1.000E-06  1.000E-06
       1.000E-06  1.000E-06  1.000E-06  1.000E-06  1.000E-06  1.000E-06  1.000E-06  1.000E-06  1.000E-06  1.000E-06  1.000E-06
       1.000E-06  1.000E-06  1.000E-06  1.000E-06  1.000E-06  1.000E-06  1.000E-06  1.000E-06  1.000E-06  1.000E-06  1.000E-06
       1.000E-06  1.000E-06  1.000E-06  1.000E-06  1.000E-06  1.000E-06  1.000E-06  1.000E-06  1.000E-06  1.000E-06  1.000E-06
       1.000E-06  1.000E-06  1.000E-06  1.000E-06  1.000E-06  1.000E-06  1.000E-06  1.000E-06  1.000E-06  1.000E-06  1.000E-06
       1.000E-06  1.000E-06  1.000E-06  1.000E-06  1.000E-06  1.000E-06  1.000E-06  1.000E-06  1.000E-06  1.000E-06  1.000E-06
       1.000E-06  1.000E-06  1.000E-06  1.000E-06  1.000E-06  1.000E-06  1.000E-06  1.000E-06  1.000E-06  1.000E-06  1.000E-06
       1.000E-06  1.000E-06  1.000E-06  1.000E-06  1.000E-06  1.000E-06  1.000E-06  1.000E-06  1.000E-06  1.000E-06  1.000E-06
       1.000E-06  1.000E-06  1.000E-06  1.000E-06  1.000E-06  1.000E-06  1.000E-06  1.000E-06  1.000E-06  1.000E-06  1.000E-06
       1.000E-06  1.000E-06  1.000E-06  1.000E-06  1.000E-06  1.000E-06  1.000E-06  1.000E-06  1.000E-06  1.000E-06  1.000E-06
       1.000E-06  1.000E-06  1.000E-06  1.000E-06  1.000E-06  1.000E-06  1.000E-06  1.000E-06  1.000E-06  1.000E-06  1.000E-06
       1.000E-06  1.000E-06  1.000E-06  1.000E-06  1.000E-06  1.000E-06  1.000E-06  1.000E-06  1.000E-06  1.000E-06  1.000E-06
       1.000E-06  1.000E-06  1.000E-06  1.000E-06  1.000E-06  1.000E-06  1.000E-06  1.000E-06  1.000E-06  1.000E-06  1.000E-06
       1.000E-06  1.000E-06  1.000E-06  1.000E-06  1.000E-06  1.000E-06  1.000E-06  1.000E-06  1.000E-06  1.000E-06  1.000E-06
       1.000E-06  1.000E-06  1.000E-06  1.000E-06  1.000E-06  1.000E-06  1.000E-06  1.000E-06  1.000E-06  1.000E-06  1.000E-06
       1.000E-06  1.000E-06  1.000E-06  1.000E-06  1.000E-06  1.000E-06  1.000E-06  1.000E-06  1.000E-06  1.000E-06  1.000E-06
       1.000E-06  1.000E-06  1.000E-06  1.000E-06  1.000E-06  1.000E-06  1.000E-06  1.000E-06  1.000E-06  1.000E-06  1.000E-06
       1.000E-06  1.000E-06  1.000E-06  1.000E-06  1.000E-06  1.000E-06  1.000E-06  1.000E-06  1.000E-06  1.000E-06  1.000E-06
       1.000E-06  1.000E-06  1.000E-06  1.000E-06  1.000E-06  1.000E-06  1.000E-06  1.000E-06  1.000E-06  1.000E-06  1.000E-06
       1.000E-06  1.000E-06  1.000E-06  1.000E-06  1.000E-06  1.000E-06  1.000E-06  1.000E-06  1.000E-06  1.000E-06  1.000E-06
       1.000E-06  1.000E-06  1.000E-06  1.000E-06  1.000E-06  1.000E-06  1.000E-06  1.000E-06  1.000E-06  1.000E-06  1.000E-06
       1.000E-06  1.000E-06  1.000E-06  1.000E-06  1.000E-06  1.000E-06  1.000E-06  1.000E-06  1.000E-06  1.000E-06  1.000E-06
       1.000E-06  1.000E-06  1.000E-06  1.000E-06  1.000E-06  1.000E-06  1.000E-06  1.000E-06  1.000E-06  1.000E-06  1.000E-06
       1.000E-06  1.000E-06  1.000E-06  1.000E-06  1.000E-06  1.000E-06  1.000E-06  1.000E-06  1.000E-06  1.000E-06  1.000E-06
       1.000E-06  1.000E-06  1.000E-06  1.000E-06  1.000E-06  1.000E-06  1.000E-06  1.000E-06  1.000E-06  1.000E-06  1.000E-06
       1.000E-06  1.000E-06  1.000E-06  1.000E-06  1.000E-06  1.000E-06  1.000E-06  1.000E-06  1.000E-06  1.000E-06  1.000E-06
       1.000E-06  1.000E-06  1.000E-06  1.000E-06  1.000E-06  1.000E-06  1.000E-06  1.000E-06  1.000E-06  1.000E-06  1.000E-06
       1.000E-06  1.000E-06  1.000E-06  1.000E-06  1.000E-06  1.000E-06  1.000E-06  1.000E-06  1.000E-06  1.000E-06  1.000E-06
       1.000E-06  1.000E-06  1.000E-06  1.000E-06  1.000E-06  1.000E-06  1.000E-06  1.000E-06  1.000E-06  1.000E-06  1.000E-06
       1.000E-06  1.000E-06  1.000E-06  1.000E-06  1.000E-06  1.000E-06  1.000E-06  1.000E-06  1.000E-06  1.000E-06  1.000E-06
       1.000E-06  1.000E-06  1.000E-06  1.000E-06  1.000E-06  1.000E-06  1.000E-06  1.000E-06  1.000E-06  1.000E-06  1.000E-06
       1.000E-06  1.000E-06  1.000E-06  1.000E-06  1.000E-06  1.000E-06  1.000E-06  1.000E-06  1.000E-06  1.000E-06  1.000E-06
       1.000E-06  1.000E-06  1.000E-06  1.000E-06  1.000E-06  1.000E-06  1.000E-06  1.000E-06  1.000E-06  1.000E-06  1.000E-06
       1.000E-06  1.000E-06  1.000E-06  1.000E-06  1.000E-06  1.000E-06  1.000E-06  1.000E-06  1.000E-06  1.000E-06  1.000E-06
       1.000E-06  1.000E-06  1.000E-06  1.000E-06  1.000E-06  1.000E-06  1.000E-06  1.000E-06  1.000E-06  1.000E-06  1.000E-06
       1.000E-06  1.000E-06  1.000E-06  1.000E-06  1.000E-06  1.000E-06  1.000E-06  1.000E-06  1.000E-06  1.000E-06  1.000E-06
       1.000E-06  1.000E-06  1.000E-06  1.000E-06  1.000E-06  1.000E-06  1.000E-06  1.000E-06  1.000E-06  1.000E-06  1.000E-06
       1.000E-06  1.000E-06  1.000E-06  1.000E-06  1.000E-06  1.000E-06  1.000E-06  1.000E-06  1.000E-06  1.000E-06  1.000E-06
       1.000E-06  1.000E-06  1.000E-06  1.000E-06  1.000E-06  1.000E-06  1.000E-06  1.000E-06  1.000E-06  1.000E-06  1.000E-06
       1.000E-06  1.000E-06  1.000E-06  1.000E-06  1.000E-06  1.000E-06  1.000E-06  1.000E-06  1.000E-06  1.000E-06  1.000E-06
       1.000E-06  1.000E-06  1.000E-06  1.000E-06  1.000E-06  1.000E-06  1.000E-06  1.000E-06  1.000E-06  1.000E-06  1.000E-06
       1.000E-06  1.000E-06  1.000E-06  1.000E-06  1.000E-06  1.000E-06  1.000E-06  1.000E-06  1.000E-06  1.000E-06  1.000E-06
       1.000E-06  1.000E-06  1.000E-06  1.000E-06  1.000E-06  1.000E-06  1.000E-06  1.000E-06  1.000E-06  1.000E-06  1.000E-06
       1.000E-06  1.000E-06  1.000E-06  1.000E-06  1.000E-06  1.000E-06  1.000E-06  1.000E-06  1.000E-06  1.000E-06  1.000E-06
       1.000E-06  1.000E-06  1.000E-06  1.000E-06  1.000E-06  1.000E-06  1.000E-06  1.000E-06  1.000E-06  1.000E-06  1.000E-06
       1.000E-06  1.000E-06  1.000E-06  1.000E-06  1.000E-06  1.000E-06  1.000E-06  1.000E-06  1.000E-06  1.000E-06  1.000E-06
       1.000E-06  1.000E-06  1.000E-06  1.000E-06  1.000E-06  1.000E-06  1.000E-06  1.000E-06  1.000E-06  1.000E-06  1.000E-06
       1.000E-06  1.000E-06  1.000E-06  1.000E-06  1.000E-06  1.000E-06  1.000E-06  1.000E-06  1.000E-06  1.000E-06  1.000E-06
       1.000E-06  1.000E-06  1.000E-06  1.000E-06  1.000E-06  1.000E-06  1.000E-06  1.000E-06  1.000E-06  1.000E-06  1.000E-06
       1.000E-06  1.000E-06  1.000E-06  1.000E-06  1.000E-06  1.000E-06  1.000E-06  1.000E-06  1.000E-06  1.000E-06  1.000E-06
       1.000E-06  1.000E-06  1.000E-06  1.000E-06  1.000E-06  1.000E-06  1.000E-06  1.000E-06  1.000E-06  1.000E-06  1.000E-06
       1.000E-06  1.000E-06  1.000E-06  1.000E-06  1.000E-06  1.000E-06  1.000E-06  1.000E-06  1.000E-06  1.000E-06  1.000E-06
       1.000E-06  1.000E-06  1.000E-06  1.000E-06  1.000E-06  1.000E-06  1.000E-06  1.000E-06  1.000E-06  1.000E-06  1.000E-06
       1.000E-06  1.000E-06  1.000E-06  1.000E-06  1.000E-06  1.000E-06  1.000E-06  1.000E-06  1.000E-06  1.000E-06  1.000E-06
       1.000E-06  1.000E-06  1.000E-06  1.000E-06  1.000E-06  1.000E-06  1.000E-06  1.000E-06  1.000E-06  1.000E-06  1.000E-06
       1.000E-06  1.000E-06  1.000E-06  1.000E-06  1.000E-06  1.000E-06  1.000E-06  1.000E-06  1.000E-06  1.000E-06  1.000E-06
       1.000E-06  1.000E-06  1.000E-06  1.000E-06  1.000E-06  1.000E-06  1.000E-06  1.000E-06  1.000E-06  1.000E-06  1.000E-06
       1.000E-06  1.000E-06  1.000E-06  1.000E-06  1.000E-06  1.000E-06  1.000E-06  1.000E-06  1.000E-06  1.000E-06  1.000E-06
       1.000E-06  1.000E-06  1.000E-06  1.000E-06  1.000E-06  1.000E-06  1.000E-06  1.000E-06  1.000E-06  1.000E-06  1.000E-06
       1.000E-06  1.000E-06  1.000E-06  1.000E-06  1.000E-06  1.000E-06  1.000E-06  1.000E-06  1.000E-06  1.000E-06  1.000E-06
       1.000E-06  1.000E-06  1.000E-06  1.000E-06  1.000E-06  1.000E-06  1.000E-06  1.000E-06  1.000E-06  1.000E-06  1.000E-06
       1.000E-06  1.000E-06  1.000E-06  1.000E-06  1.000E-06  1.000E-06  1.000E-06  1.000E-06  1.000E-06  1.000E-06  1.000E-06
       1.000E-06  1.000E-06  1.000E-06  1.000E-06  1.000E-06  1.000E-06  1.000E-06  1.000E-06  1.000E-06  1.000E-06  1.000E-06
       1.000E-06  1.000E-06  1.000E-06  1.000E-06  1.000E-06  1.000E-06  1.000E-06  1.000E-06  1.000E-06  1.000E-06  1.000E-06
       1.000E-06  1.000E-06  1.000E-06  1.000E-06  1.000E-06  1.000E-06  1.000E-06  1.000E-06  1.000E-06  1.000E-06  1.000E-06
       1.000E-06  1.000E-06  1.000E-06  1.000E-06  1.000E-06  1.000E-06  1.000E-06  1.000E-06  1.000E-06  1.000E-06  1.000E-06
       1.000E-06  1.000E-06  1.000E-06  1.000E-06  1.000E-06  1.000E-06  1.000E-06  1.000E-06  1.000E-06  1.000E-06  1.000E-06
       1.000E-06  1.000E-06  1.000E-06  1.000E-06  1.000E-06  1.000E-06  1.000E-06  1.000E-06  1.000E-06  1.000E-06  1.000E-06
       1.000E-06  1.000E-06  1.000E-06  1.000E-06  1.000E-06  1.000E-06  1.000E-06  1.000E-06  1.000E-06  1.000E-06  1.000E-06
       1.000E-06  1.000E-06  1.000E-06  1.000E-06  1.000E-06  1.000E-06  1.000E-06  1.000E-06  1.000E-06  1.000E-06  1.000E-06
       1.000E-06  1.000E-06  1.000E-06  1.000E-06  1.000E-06  1.000E-06  1.000E-06  1.000E-06  1.000E-06  1.000E-06  1.000E-06
       1.000E-06  1.000E-06  1.000E-06  1.000E-06  1.000E-06  1.000E-06  1.000E-06  1.000E-06  1.000E-06  1.000E-06  1.000E-06
       1.000E-06  1.000E-06  1.000E-06  1.000E-06  1.000E-06  1.000E-06  1.000E-06  1.000E-06  1.000E-06  1.000E-06  1.000E-06
       1.000E-06  1.000E-06  1.000E-06  1.000E-06  1.000E-06  1.000E-06  1.000E-06  1.000E-06  1.000E-06  1.000E-06  1.000E-06
       1.000E-06  1.000E-06  1.000E-06  1.000E-06  1.000E-06  1.000E-06  1.000E-06  1.000E-06  1.000E-06  1.000E-06  1.000E-06
       1.000E-06  1.000E-06  1.000E-06  1.000E-06  1.000E-06  1.000E-06  1.000E-06  1.000E-06  1.000E-06  1.000E-06  1.000E-06
       1.000E-06  1.000E-06  1.000E-06  1.000E-06  1.000E-06  1.000E-06  1.000E-06  1.000E-06  1.000E-06  1.000E-06  1.000E-06
       1.000E-06  1.000E-06  1.000E-06  1.000E-06  1.000E-06  1.000E-06  1.000E-06  1.000E-06  1.000E-06  1.000E-06  1.000E-06
       1.000E-06  1.000E-06  1.000E-06  1.000E-06  1.000E-06  1.000E-06  1.000E-06  1.000E-06  1.000E-06  1.000E-06  1.000E-06
       1.000E-06  1.000E-06  1.000E-06  1.000E-06  1.000E-06  1.000E-06  1.000E-06  1.000E-06  1.000E-06  1.000E-06  1.000E-06
       1.000E-06  1.000E-06  1.000E-06  1.000E-06  1.000E-06  1.000E-06  1.000E-06  1.000E-06  1.000E-06  1.000E-06  1.000E-06
       1.000E-06  1.000E-06  1.000E-06  1.000E-06  1.000E-06  1.000E-06  1.000E-06  1.000E-06  1.000E-06  1.000E-06  1.000E-06
       1.000E-06  1.000E-06  1.000E-06  1.000E-06  1.000E-06  1.000E-06  1.000E-06  1.000E-06  1.000E-06  1.000E-06  1.000E-06
       1.000E-06  1.000E-06  1.000E-06  1.000E-06  1.000E-06  1.000E-06  1.000E-06  1.000E-06  1.000E-06  1.000E-06  1.000E-06
       1.000E-06  1.000E-06  1.000E-06  1.000E-06  1.000E-06  1.000E-06  1.000E-06  1.000E-06  1.000E-06  1.000E-06  1.000E-06
       1.000E-06  1.000E-06  1.000E-06  1.000E-06  1.000E-06  1.000E-06  1.000E-06  1.000E-06  1.000E-06  1.000E-06  1.000E-06
       1.000E-06  1.000E-06  1.000E-06  1.000E-06  1.000E-06  1.000E-06  1.000E-06  1.000E-06  1.000E-06  1.000E-06  1.000E-06
       1.000E-06  1.000E-06  1.000E-06  1.000E-06  1.000E-06  1.000E-06  1.000E-06  1.000E-06  1.000E-06  1.000E-06  1.000E-06
       1.000E-06  1.000E-06  1.000E-06  1.000E-06  1.000E-06  1.000E-06  1.000E-06  1.000E-06  1.000E-06  1.000E-06  1.000E-06
       1.000E-06  1.000E-06  1.000E-06  1.000E-06  1.000E-06  1.000E-06  1.000E-06  1.000E-06  1.000E-06  1.000E-06  1.000E-06
       1.000E-06  1.000E-06  1.000E-06  1.000E-06  1.000E-06  1.000E-06  1.000E-06  1.000E-06  1.000E-06  1.000E-06  1.000E-06
       1.000E-06  1.000E-06  1.000E-06  1.000E-06  1.000E-06  1.000E-06  1.000E-06  1.000E-06  1.000E-06  1.000E-06  1.000E-06
       1.000E-06  1.000E-06  1.000E-06  1.000E-06  1.000E-06  1.000E-06  1.000E-06  1.000E-06  1.000E-06  1.000E-06  1.000E-06
       1.000E-06  1.000E-06  1.000E-06  1.000E-06  1.000E-06  1.000E-06  1.000E-06  1.000E-06  1.000E-06  1.000E-06  1.000E-06
       1.000E-06  1.000E-06  1.000E-06  1.000E-06  1.000E-06  1.000E-06  1.000E-06  1.000E-06  1.000E-06  1.000E-06  1.000E-06
       1.000E-06  1.000E-06  1.000E-06  1.000E-06  1.000E-06  1.000E-06  1.000E-06  1.000E-06  1.000E-06  1.000E-06  1.000E-06
       1.000E-06  1.000E-06  1.000E-06  1.000E-06  1.000E-06  1.000E-06  1.000E-06  1.000E-06  1.000E-06  1.000E-06  1.000E-06
       1.000E-06  1.000E-06  1.000E-06  1.000E-06  1.000E-06  1.000E-06  1.000E-06  1.000E-06  1.000E-06  1.000E-06  1.000E-06
       1.000E-06  1.000E-06  1.000E-06  1.000E-06  1.000E-06  1.000E-06  1.000E-06  1.000E-06  1.000E-06  1.000E-06  1.000E-06
       1.000E-06  1.000E-06  1.000E-06  1.000E-06  1.000E-06  1.000E-06  1.000E-06  1.000E-06  1.000E-06  1.000E-06  1.000E-06
       1.000E-06  1.000E-06  1.000E-06  1.000E-06  1.000E-06  1.000E-06  1.000E-06  1.000E-06  1.000E-06  1.000E-06  1.000E-06
       1.000E-06  1.000E-06  1.000E-06  1.000E-06  1.000E-06  1.000E-06  1.000E-06  1.000E-06  1.000E-06  1.000E-06  1.000E-06
       1.000E-06  1.000E-06  1.000E-06  1.000E-06  1.000E-06  1.000E-06  1.000E-06  1.000E-06  1.000E-06  1.000E-06  1.000E-06
       1.000E-06  1.000E-06  1.000E-06  1.000E-06  1.000E-06  1.000E-06  1.000E-06  1.000E-06  1.000E-06  1.000E-06  1.000E-06
       1.000E-06  1.000E-06  1.000E-06  1.000E-06  1.000E-06  1.000E-06  1.000E-06  1.000E-06  1.000E-06  1.000E-06  1.000E-06
       1.000E-06  1.000E-06  1.000E-06  1.000E-06  1.000E-06  1.000E-06  1.000E-06  1.000E-06  1.000E-06  1.000E-06  1.000E-06
       1.000E-06  1.000E-06  1.000E-06  1.000E-06  1.000E-06  1.000E-06  1.000E-06  1.000E-06  1.000E-06  1.000E-06  1.000E-06
       1.000E-06  1.000E-06  1.000E-06  1.000E-06  1.000E-06  1.000E-06  1.000E-06  1.000E-06  1.000E-06  1.000E-06  1.000E-06
       1.000E-06  1.000E-06  1.000E-06  1.000E-06  1.000E-06  1.000E-06  1.000E-06  1.000E-06  1.000E-06  1.000E-06  1.000E-06
       1.000E-06  1.000E-06  1.000E-06  1.000E-06  1.000E-06  1.000E-06  1.000E-06  1.000E-06  1.000E-06  1.000E-06  1.000E-06
       1.000E-06  1.000E-06  1.000E-06  1.000E-06  1.000E-06  1.000E-06  1.000E-06  1.000E-06  1.000E-06  1.000E-06  1.000E-06
       1.000E-06  1.000E-06  1.000E-06  1.000E-06  1.000E-06  1.000E-06  1.000E-06  1.000E-06  1.000E-06  1.000E-06  1.000E-06
       1.000E-06  1.000E-06  1.000E-06  1.000E-06  1.000E-06  1.000E-06  1.000E-06  1.000E-06  1.000E-06  1.000E-06  1.000E-06
       1.000E-06  1.000E-06  1.000E-06  1.000E-06  1.000E-06  1.000E-06  1.000E-06  1.000E-06  1.000E-06  1.000E-06  1.000E-06
       1.000E-06  1.000E-06  1.000E-06  1.000E-06  1.000E-06  1.000E-06  1.000E-06  1.000E-06  1.000E-06  1.000E-06  1.000E-06
       1.000E-06  1.000E-06  1.000E-06  1.000E-06  1.000E-06  1.000E-06  1.000E-06  1.000E-06  1.000E-06  1.000E-06  1.000E-06
       1.000E-06  1.000E-06  1.000E-06  1.000E-06  1.000E-06  1.000E-06  1.000E-06  1.000E-06  1.000E-06  1.000E-06  1.000E-06
       1.000E-06  1.000E-06  1.000E-06  1.000E-06  1.000E-06  1.000E-06  1.000E-06  1.000E-06  1.000E-06  1.000E-06  1.000E-06
       1.000E-06  1.000E-06  1.000E-06  1.000E-06  1.000E-06  1.000E-06  1.000E-06  1.000E-06  1.000E-06  1.000E-06  1.000E-06
       1.000E-06  1.000E-06  1.000E-06  1.000E-06  1.000E-06  1.000E-06  1.000E-06  1.000E-06  1.000E-06  1.000E-06  1.000E-06
       1.000E-06  1.000E-06  1.000E-06  1.000E-06  1.000E-06  1.000E-06  1.000E-06  1.000E-06  1.000E-06  1.000E-06  1.000E-06
       1.000E-06  1.000E-06  1.000E-06  1.000E-06  1.000E-06  1.000E-06  1.000E-06  1.000E-06  1.000E-06  1.000E-06  1.000E-06
       1.000E-06  1.000E-06  1.000E-06  1.000E-06  1.000E-06  1.000E-06  1.000E-06  1.000E-06  1.000E-06  1.000E-06  1.000E-06
       1.000E-06  1.000E-06  1.000E-06  1.000E-06  1.000E-06  1.000E-06  1.000E-06  1.000E-06  1.000E-06  1.000E-06  1.000E-06
       1.000E-06  1.000E-06  1.000E-06  1.000E-06  1.000E-06  1.000E-06  1.000E-06  1.000E-06  1.000E-06  1.000E-06  1.000E-06
       1.000E-06  1.000E-06  1.000E-06  1.000E-06  1.000E-06  1.000E-06  1.000E-06  1.000E-06  1.000E-06  1.000E-06  1.000E-06
       1.000E-06  1.000E-06  1.000E-06  1.000E-06  1.000E-06  1.000E-06  1.000E-06  1.000E-06  1.000E-06  1.000E-06  1.000E-06
       1.000E-06  1.000E-06  1.000E-06  1.000E-06  1.000E-06  1.000E-06  1.000E-06  1.000E-06  1.000E-06  1.000E-06  1.000E-06
       1.000E-06  1.000E-06  1.000E-06  1.000E-06  1.000E-06  1.000E-06  1.000E-06  1.000E-06  1.000E-06  1.000E-06  1.000E-06
       1.000E-06  1.000E-06  1.000E-06  1.000E-06  1.000E-06  1.000E-06  1.000E-06  1.000E-06  1.000E-06  1.000E-06  1.000E-06
       1.000E-06  1.000E-06  1.000E-06  1.000E-06  1.000E-06  1.000E-06  1.000E-06  1.000E-06  1.000E-06  1.000E-06  1.000E-06
       1.000E-06  1.000E-06  1.000E-06  1.000E-06  1.000E-06  1.000E-06  1.000E-06  1.000E-06  1.000E-06  1.000E-06  1.000E-06
       1.000E-06  1.000E-06  1.000E-06  1.000E-06  1.000E-06  1.000E-06  1.000E-06  1.000E-06  1.000E-06  1.000E-06  1.000E-06
       1.000E-06  1.000E-06  1.000E-06  1.000E-06  1.000E-06  1.000E-06  1.000E-06  1.000E-06  1.000E-06  1.000E-06  1.000E-06
       1.000E-06  1.000E-06  1.000E-06  1.000E-06  1.000E-06  1.000E-06  1.000E-06  1.000E-06  1.000E-06  1.000E-06  1.000E-06
       1.000E-06  1.000E-06  1.000E-06  1.000E-06  1.000E-06  1.000E-06  1.000E-06  1.000E-06  1.000E-06  1.000E-06  1.000E-06
       1.000E-06  1.000E-06  1.000E-06  1.000E-06  1.000E-06  1.000E-06  1.000E-06  1.000E-06  1.000E-06  1.000E-06  1.000E-06
       1.000E-06  1.000E-06  1.000E-06  1.000E-06  1.000E-06  1.000E-06  1.000E-06  1.000E-06  1.000E-06  1.000E-06  1.000E-06
       1.000E-06  1.000E-06  1.000E-06  1.000E-06  1.000E-06  1.000E-06  1.000E-06  1.000E-06  1.000E-06  1.000E-06  1.000E-06
       1.000E-06  1.000E-06  1.000E-06  1.000E-06  1.000E-06  1.000E-06  1.000E-06  1.000E-06  1.000E-06  1.000E-06  1.000E-06
       1.000E-06  1.000E-06  1.000E-06  1.000E-06  1.000E-06  1.000E-06  1.000E-06  1.000E-06  1.000E-06  1.000E-06  1.000E-06
       1.000E-06  1.000E-06  1.000E-06  1.000E-06  1.000E-06  1.000E-06  1.000E-06  1.000E-06  1.000E-06  1.000E-06  1.000E-06
       1.000E-06  1.000E-06  1.000E-06  1.000E-06  1.000E-06  1.000E-06  1.000E-06  1.000E-06  1.000E-06  1.000E-06  1.000E-06
       1.000E-06  1.000E-06  1.000E-06  1.000E-06  1.000E-06  1.000E-06  1.000E-06  1.000E-06  1.000E-06  1.000E-06  1.000E-06
       1.000E-06  1.000E-06  1.000E-06  1.000E-06  1.000E-06  1.000E-06  1.000E-06  1.000E-06  1.000E-06  1.000E-06  1.000E-06
       1.000E-06  1.000E-06  1.000E-06  1.000E-06  1.000E-06  1.000E-06  1.000E-06  1.000E-06  1.000E-06  1.000E-06  1.000E-06
       1.000E-06  1.000E-06  1.000E-06  1.000E-06  1.000E-06  1.000E-06  1.000E-06  1.000E-06  1.000E-06  1.000E-06  1.000E-06
       1.000E-06  1.000E-06  1.000E-06  1.000E-06  1.000E-06  1.000E-06  1.000E-06  1.000E-06  1.000E-06  1.000E-06  1.000E-06
       1.000E-06  1.000E-06  1.000E-06  1.000E-06  1.000E-06  1.000E-06  1.000E-06  1.000E-06  1.000E-06  1.000E-06  1.000E-06
       1.000E-06  1.000E-06  1.000E-06  1.000E-06  1.000E-06  1.000E-06  1.000E-06  1.000E-06  1.000E-06  1.000E-06  1.000E-06
       1.000E-06  1.000E-06  1.000E-06  1.000E-06  1.000E-06  1.000E-06  1.000E-06  1.000E-06  1.000E-06  1.000E-06  1.000E-06
       1.000E-06  1.000E-06  1.000E-06  1.000E-06  1.000E-06  1.000E-06  1.000E-06  1.000E-06  1.000E-06  1.000E-06  1.000E-06
       1.000E-06  1.000E-06  1.000E-06  1.000E-06  1.000E-06  1.000E-06  1.000E-06  1.000E-06  1.000E-06  1.000E-06  1.000E-06
       1.000E-06  1.000E-06  1.000E-06  1.000E-06  1.000E-06  1.000E-06  1.000E-06  1.000E-06  1.000E-06  1.000E-06  1.000E-06
       1.000E-06  1.000E-06  1.000E-06  1.000E-06  1.000E-06  1.000E-06  1.000E-06  1.000E-06  1.000E-06  1.000E-06  1.000E-06
       1.000E-06  1.000E-06  1.000E-06  1.000E-06  1.000E-06  1.000E-06  1.000E-06  1.000E-06  1.000E-06  1.000E-06  1.000E-06
       1.000E-06  1.000E-06  1.000E-06  1.000E-06  1.000E-06  1.000E-06  1.000E-06  1.000E-06  1.000E-06  1.000E-06  1.000E-06
       1.000E-06  1.000E-06  1.000E-06  1.000E-06  1.000E-06  1.000E-06  1.000E-06  1.000E-06  1.000E-06  1.000E-06  1.000E-06
       1.000E-06  1.000E-06  1.000E-06  1.000E-06  1.000E-06  1.000E-06  1.000E-06  1.000E-06  1.000E-06  1.000E-06  1.000E-06
       1.000E-06  1.000E-06  1.000E-06  1.000E-06  1.000E-06  1.000E-06  1.000E-06  1.000E-06  1.000E-06  1.000E-06  1.000E-06
       1.000E-06  1.000E-06  1.000E-06  1.000E-06  1.000E-06  1.000E-06  1.000E-06  1.000E-06  1.000E-06  1.000E-06  1.000E-06
       1.000E-06  1.000E-06  1.000E-06  1.000E-06  1.000E-06  1.000E-06  1.000E-06  1.000E-06  1.000E-06  1.000E-06  1.000E-06
       1.000E-06  1.000E-06  1.000E-06  1.000E-06  1.000E-06  1.000E-06  1.000E-06  1.000E-06  1.000E-06  1.000E-06  1.000E-06
       1.000E-06  1.000E-06  1.000E-06  1.000E-06  1.000E-06  1.000E-06  1.000E-06  1.000E-06  1.000E-06  1.000E-06  1.000E-06
       1.000E-06  1.000E-06  1.000E-06  1.000E-06  1.000E-06  1.000E-06  1.000E-06  1.000E-06  1.000E-06  1.000E-06  1.000E-06
       1.000E-06  1.000E-06  1.000E-06  1.000E-06  1.000E-06  1.000E-06  1.000E-06  1.000E-06  1.000E-06  1.000E-06  1.000E-06
       1.000E-06  1.000E-06  1.000E-06  1.000E-06  1.000E-06  1.000E-06  1.000E-06  1.000E-06  1.000E-06  1.000E-06  1.000E-06
       1.000E-06  1.000E-06  1.000E-06  1.000E-06  1.000E-06  1.000E-06  1.000E-06  1.000E-06  1.000E-06  1.000E-06  1.000E-06
       1.000E-06  1.000E-06  1.000E-06  1.000E-06  1.000E-06  1.000E-06  1.000E-06  1.000E-06  1.000E-06  1.000E-06  1.000E-06
       1.000E-06  1.000E-06  1.000E-06  1.000E-06  1.000E-06  1.000E-06  1.000E-06  1.000E-06  1.000E-06  1.000E-06  1.000E-06
       1.000E-06  1.000E-06  1.000E-06  1.000E-06  1.000E-06  1.000E-06  1.000E-06  1.000E-06  1.000E-06  1.000E-06  1.000E-06
       1.000E-06  1.000E-06  1.000E-06  1.000E-06  1.000E-06  1.000E-06  1.000E-06  1.000E-06  1.000E-06  1.000E-06  1.000E-06
       1.000E-06  1.000E-06  1.000E-06  1.000E-06  1.000E-06  1.000E-06  1.000E-06  1.000E-06  1.000E-06  1.000E-06  1.000E-06
       1.000E-06  1.000E-06  1.000E-06  1.000E-06  1.000E-06  1.000E-06  1.000E-06  1.000E-06  1.000E-06  1.000E-06  1.000E-06
       1.000E-06  1.000E-06  1.000E-06  1.000E-06  1.000E-06  1.000E-06  1.000E-06  1.000E-06  1.000E-06  1.000E-06  1.000E-06
       1.000E-06  1.000E-06  1.000E-06  1.000E-06  1.000E-06  1.000E-06  1.000E-06  1.000E-06  1.000E-06  1.000E-06  1.000E-06
       1.000E-06  1.000E-06  1.000E-06  1.000E-06  1.000E-06  1.000E-06  1.000E-06  1.000E-06  1.000E-06  1.000E-06  1.000E-06
       1.000E-06  1.000E-06  1.000E-06  1.000E-06  1.000E-06  1.000E-06  1.000E-06  1.000E-06  1.000E-06  1.000E-06  1.000E-06
       1.000E-06  1.000E-06  1.000E-06  1.000E-06  1.000E-06  1.000E-06  1.000E-06  1.000E-06  1.000E-06  1.000E-06  1.000E-06
       1.000E-06  1.000E-06  1.000E-06  1.000E-06  1.000E-06  1.000E-06  1.000E-06  1.000E-06  1.000E-06  1.000E-06  1.000E-06
       1.000E-06  1.000E-06  1.000E-06  1.000E-06  1.000E-06  1.000E-06  1.000E-06  1.000E-06  1.000E-06  1.000E-06  1.000E-06
       1.000E-06  1.000E-06  1.000E-06  1.000E-06  1.000E-06  1.000E-06  1.000E-06  1.000E-06  1.000E-06  1.000E-06  1.000E-06
       1.000E-06  1.000E-06  1.000E-06  1.000E-06  1.000E-06  1.000E-06  1.000E-06  1.000E-06  1.000E-06  1.000E-06  1.000E-06
       1.000E-06  1.000E-06  1.000E-06  1.000E-06  1.000E-06  1.000E-06  1.000E-06  1.000E-06  1.000E-06  1.000E-06  1.000E-06
       1.000E-06  1.000E-06  1.000E-06  1.000E-06  1.000E-06  1.000E-06  1.000E-06  1.000E-06  1.000E-06  1.000E-06  1.000E-06
       1.000E-06  1.000E-06  1.000E-06  1.000E-06  1.000E-06  1.000E-06  1.000E-06  1.000E-06  1.000E-06  1.000E-06  1.000E-06
       1.000E-06  1.000E-06  1.000E-06  1.000E-06  1.000E-06  1.000E-06  1.000E-06  1.000E-06  1.000E-06  1.000E-06  1.000E-06
       1.000E-06  1.000E-06  1.000E-06  1.000E-06  1.000E-06  1.000E-06  1.000E-06  1.000E-06  1.000E-06  1.000E-06  1.000E-06
       1.000E-06  1.000E-06  1.000E-06  1.000E-06  1.000E-06  1.000E-06  1.000E-06  1.000E-06  1.000E-06  1.000E-06  1.000E-06
       1.000E-06  1.000E-06  1.000E-06  1.000E-06  1.000E-06  1.000E-06  1.000E-06  1.000E-06  1.000E-06  1.000E-06  1.000E-06
       1.000E-06  1.000E-06  1.000E-06  1.000E-06  1.000E-06  1.000E-06  1.000E-06  1.000E-06  1.000E-06  1.000E-06  1.000E-06
       1.000E-06  1.000E-06  1.000E-06  1.000E-06  1.000E-06  1.000E-06  1.000E-06  1.000E-06  1.000E-06  1.000E-06  1.000E-06
       1.000E-06  1.000E-06  1.000E-06  1.000E-06  1.000E-06  1.000E-06  1.000E-06  1.000E-06  1.000E-06  1.000E-06  1.000E-06
       1.000E-06  1.000E-06  1.000E-06  1.000E-06  1.000E-06  1.000E-06  1.000E-06  1.000E-06  1.000E-06  1.000E-06  1.000E-06
       1.000E-06  1.000E-06  1.000E-06  1.000E-06  1.000E-06  1.000E-06  1.000E-06  1.000E-06  1.000E-06  1.000E-06  1.000E-06
       1.000E-06  1.000E-06  1.000E-06  1.000E-06  1.000E-06  1.000E-06  1.000E-06  1.000E-06  1.000E-06  1.000E-06  1.000E-06
       1.000E-06  1.000E-06  1.000E-06  1.000E-06  1.000E-06  1.000E-06  1.000E-06  1.000E-06  1.000E-06  1.000E-06  1.000E-06
       1.000E-06  1.000E-06  1.000E-06  1.000E-06  1.000E-06  1.000E-06  1.000E-06  1.000E-06  1.000E-06  1.000E-06  1.000E-06
       1.000E-06  1.000E-06  1.000E-06  1.000E-06  1.000E-06  1.000E-06  1.000E-06  1.000E-06  1.000E-06  1.000E-06  1.000E-06
       1.000E-06  1.000E-06  1.000E-06  1.000E-06  1.000E-06  1.000E-06  1.000E-06  1.000E-06  1.000E-06  1.000E-06  1.000E-06
       1.000E-06  1.000E-06  1.000E-06  1.000E-06  1.000E-06  1.000E-06  1.000E-06  1.000E-06  1.000E-06  1.000E-06  1.000E-06
       1.000E-06  1.000E-06  1.000E-06  1.000E-06  1.000E-06  1.000E-06  1.000E-06  1.000E-06  1.000E-06  1.000E-06  1.000E-06
       1.000E-06  1.000E-06  1.000E-06  1.000E-06  1.000E-06  1.000E-06  1.000E-06  1.000E-06  1.000E-06  1.000E-06  1.000E-06
       1.000E-06  1.000E-06  1.000E-06  1.000E-06  1.000E-06  1.000E-06  1.000E-06  1.000E-06  1.000E-06  1.000E-06  1.000E-06
       1.000E-06  1.000E-06  1.000E-06  1.000E-06  1.000E-06  1.000E-06  1.000E-06  1.000E-06  1.000E-06  1.000E-06  1.000E-06
       1.000E-06  1.000E-06  1.000E-06  1.000E-06  1.000E-06  1.000E-06  1.000E-06  1.000E-06  1.000E-06  1.000E-06  1.000E-06
       1.000E-06  1.000E-06  1.000E-06  1.000E-06  1.000E-06  1.000E-06  1.000E-06  1.000E-06  1.000E-06  1.000E-06  1.000E-06
       1.000E-06  1.000E-06  1.000E-06  1.000E-06  1.000E-06  1.000E-06  1.000E-06  1.000E-06  1.000E-06  1.000E-06  1.000E-06
       1.000E-06  1.000E-06  1.000E-06  1.000E-06  1.000E-06  1.000E-06  1.000E-06  1.000E-06  1.000E-06  1.000E-06  1.000E-06
       1.000E-06  1.000E-06  1.000E-06  1.000E-06  1.000E-06  1.000E-06  1.000E-06  1.000E-06  1.000E-06  1.000E-06  1.000E-06
       1.000E-06  1.000E-06  1.000E-06  1.000E-06  1.000E-06  1.000E-06  1.000E-06  1.000E-06  1.000E-06  1.000E-06  1.000E-06
       1.000E-06  1.000E-06  1.000E-06  1.000E-06  1.000E-06  1.000E-06  1.000E-06  1.000E-06  1.000E-06  1.000E-06  1.000E-06
       1.000E-06  1.000E-06  1.000E-06  1.000E-06  1.000E-06  1.000E-06  1.000E-06  1.000E-06  1.000E-06  1.000E-06  1.000E-06
       1.000E-06  1.000E-06  1.000E-06  1.000E-06  1.000E-06  1.000E-06  1.000E-06  1.000E-06  1.000E-06  1.000E-06  1.000E-06
       1.000E-06  1.000E-06  1.000E-06  1.000E-06  1.000E-06  1.000E-06  1.000E-06  1.000E-06  1.000E-06  1.000E-06  1.000E-06
       1.000E-06  1.000E-06  1.000E-06  1.000E-06  1.000E-06  1.000E-06  1.000E-06  1.000E-06  1.000E-06  1.000E-06  1.000E-06
       1.000E-06  1.000E-06  1.000E-06  1.000E-06  1.000E-06  1.000E-06  1.000E-06  1.000E-06  1.000E-06  1.000E-06  1.000E-06
       1.000E-06  1.000E-06  1.000E-06  1.000E-06  1.000E-06  1.000E-06  1.000E-06  1.000E-06  1.000E-06  1.000E-06  1.000E-06
       1.000E-06  1.000E-06  1.000E-06  1.000E-06  1.000E-06  1.000E-06  1.000E-06  1.000E-06  1.000E-06  1.000E-06  1.000E-06
       1.000E-06  1.000E-06  1.000E-06  1.000E-06  1.000E-06  1.000E-06  1.000E-06  1.000E-06  1.000E-06  1.000E-06  1.000E-06
       1.000E-06  1.000E-06  1.000E-06  1.000E-06  1.000E-06  1.000E-06  1.000E-06  1.000E-06  1.000E-06  1.000E-06  1.000E-06
       1.000E-06  1.000E-06  1.000E-06  1.000E-06  1.000E-06  1.000E-06  1.000E-06  1.000E-06  1.000E-06  1.000E-06  1.000E-06
       1.000E-06  1.000E-06  1.000E-06  1.000E-06  1.000E-06  1.000E-06  1.000E-06  1.000E-06  1.000E-06  1.000E-06  1.000E-06
       1.000E-06  1.000E-06  1.000E-06  1.000E-06  1.000E-06  1.000E-06  1.000E-06  1.000E-06  1.000E-06  1.000E-06  1.000E-06
       1.000E-06  1.000E-06  1.000E-06  1.000E-06  1.000E-06  1.000E-06  1.000E-06  1.000E-06  1.000E-06  1.000E-06  1.000E-06
       1.000E-06  1.000E-06  1.000E-06  1.000E-06  1.000E-06  1.000E-06  1.000E-06  1.000E-06  1.000E-06  1.000E-06  1.000E-06
       1.000E-06  1.000E-06  1.000E-06  1.000E-06  1.000E-06  1.000E-06  1.000E-06  1.000E-06  1.000E-06  1.000E-06  1.000E-06
       1.000E-06  1.000E-06  1.000E-06  1.000E-06  1.000E-06  1.000E-06  1.000E-06  1.000E-06  1.000E-06  1.000E-06  1.000E-06
       1.000E-06  1.000E-06  1.000E-06  1.000E-06  1.000E-06  1.000E-06  1.000E-06  1.000E-06  1.000E-06  1.000E-06  1.000E-06
       1.000E-06  1.000E-06  1.000E-06  1.000E-06  1.000E-06  1.000E-06  1.000E-06  1.000E-06  1.000E-06  1.000E-06  1.000E-06
       1.000E-06  1.000E-06  1.000E-06  1.000E-06  1.000E-06  1.000E-06  1.000E-06  1.000E-06  1.000E-06  1.000E-06  1.000E-06
       1.000E-06  1.000E-06  1.000E-06  1.000E-06  1.000E-06  1.000E-06  1.000E-06  1.000E-06  1.000E-06  1.000E-06  1.000E-06
       1.000E-06  1.000E-06  1.000E-06  1.000E-06  1.000E-06  1.000E-06  1.000E-06  1.000E-06  1.000E-06  1.000E-06  1.000E-06
       1.000E-06  1.000E-06  1.000E-06  1.000E-06  1.000E-06  1.000E-06  1.000E-06  1.000E-06  1.000E-06  1.000E-06  1.000E-06
       1.000E-06  1.000E-06  1.000E-06  1.000E-06  1.000E-06  1.000E-06  1.000E-06  1.000E-06  1.000E-06  1.000E-06  1.000E-06
       1.000E-06  1.000E-06  1.000E-06  1.000E-06  1.000E-06  1.000E-06  1.000E-06  1.000E-06  1.000E-06  1.000E-06  1.000E-06
       1.000E-06  1.000E-06  1.000E-06  1.000E-06  1.000E-06  1.000E-06  1.000E-06  1.000E-06  1.000E-06  1.000E-06  1.000E-06
       1.000E-06  1.000E-06  1.000E-06  1.000E-06  1.000E-06  1.000E-06  1.000E-06  1.000E-06  1.000E-06  1.000E-06  1.000E-06
       1.000E-06  1.000E-06  1.000E-06  1.000E-06  1.000E-06  1.000E-06  1.000E-06  1.000E-06  1.000E-06  1.000E-06  1.000E-06
       1.000E-06  1.000E-06  1.000E-06  1.000E-06  1.000E-06  1.000E-06  1.000E-06  1.000E-06  1.000E-06  1.000E-06  1.000E-06
       1.000E-06  1.000E-06  1.000E-06  1.000E-06  1.000E-06  1.000E-06  1.000E-06  1.000E-06  1.000E-06  1.000E-06  1.000E-06
       1.000E-06  1.000E-06  1.000E-06  1.000E-06  1.000E-06  1.000E-06  1.000E-06  1.000E-06  1.000E-06  1.000E-06  1.000E-06
       1.000E-06  1.000E-06  1.000E-06  1.000E-06  1.000E-06  1.000E-06  1.000E-06  1.000E-06  1.000E-06  1.000E-06  1.000E-06
       1.000E-06  1.000E-06  1.000E-06  1.000E-06  1.000E-06  1.000E-06  1.000E-06  1.000E-06  1.000E-06  1.000E-06  1.000E-06
       1.000E-06  1.000E-06  1.000E-06  1.000E-06  1.000E-06  1.000E-06  1.000E-06  1.000E-06  1.000E-06  1.000E-06  1.000E-06
       1.000E-06  1.000E-06  1.000E-06  1.000E-06  1.000E-06  1.000E-06  1.000E-06  1.000E-06  1.000E-06  1.000E-06  1.000E-06
       1.000E-06  1.000E-06  1.000E-06  1.000E-06  1.000E-06  1.000E-06  1.000E-06  1.000E-06  1.000E-06  1.000E-06  1.000E-06
       1.000E-06  1.000E-06  1.000E-06  1.000E-06  1.000E-06  1.000E-06  1.000E-06  1.000E-06  1.000E-06  1.000E-06  1.000E-06
       1.000E-06  1.000E-06  1.000E-06  1.000E-06  1.000E-06  1.000E-06  1.000E-06  1.000E-06  1.000E-06  1.000E-06  1.000E-06
       1.000E-06  1.000E-06  1.000E-06  1.000E-06  1.000E-06  1.000E-06  1.000E-06  1.000E-06  1.000E-06  1.000E-06  1.000E-06
       1.000E-06  1.000E-06  1.000E-06  1.000E-06  1.000E-06  1.000E-06  1.000E-06  1.000E-06  1.000E-06  1.000E-06  1.000E-06
       1.000E-06  1.000E-06  1.000E-06  1.000E-06  1.000E-06  1.000E-06  1.000E-06  1.000E-06  1.000E-06  1.000E-06  1.000E-06
       1.000E-06  1.000E-06  1.000E-06  1.000E-06  1.000E-06  1.000E-06  1.000E-06  1.000E-06  1.000E-06  1.000E-06  1.000E-06
       1.000E-06  1.000E-06  1.000E-06  1.000E-06  1.000E-06  1.000E-06  1.000E-06  1.000E-06  1.000E-06  1.000E-06  1.000E-06
       1.000E-06  1.000E-06  1.000E-06  1.000E-06  1.000E-06  1.000E-06  1.000E-06  1.000E-06  1.000E-06  1.000E-06  1.000E-06
       1.000E-06  1.000E-06  1.000E-06  1.000E-06  1.000E-06  1.000E-06  1.000E-06  1.000E-06  1.000E-06  1.000E-06  1.000E-06
       1.000E-06  1.000E-06  1.000E-06  1.000E-06  1.000E-06  1.000E-06  1.000E-06  1.000E-06  1.000E-06  1.000E-06  1.000E-06
       1.000E-06  1.000E-06  1.000E-06  1.000E-06  1.000E-06  1.000E-06  1.000E-06  1.000E-06  1.000E-06  1.000E-06  1.000E-06
       1.000E-06  1.000E-06  1.000E-06  1.000E-06  1.000E-06  1.000E-06  1.000E-06  1.000E-06  1.000E-06  1.000E-06  1.000E-06
       1.000E-06  1.000E-06  1.000E-06  1.000E-06  1.000E-06  1.000E-06  1.000E-06  1.000E-06  1.000E-06  1.000E-06  1.000E-06
       1.000E-06  1.000E-06  1.000E-06  1.000E-06  1.000E-06  1.000E-06  1.000E-06  1.000E-06  1.000E-06  1.000E-06  1.000E-06
       1.000E-06  1.000E-06  1.000E-06  1.000E-06  1.000E-06  1.000E-06  1.000E-06  1.000E-06  1.000E-06  1.000E-06  1.000E-06
       1.000E-06  1.000E-06  1.000E-06  1.000E-06  1.000E-06  1.000E-06  1.000E-06  1.000E-06  1.000E-06  1.000E-06  1.000E-06
       1.000E-06  1.000E-06  1.000E-06  1.000E-06  1.000E-06  1.000E-06  1.000E-06  1.000E-06  1.000E-06  1.000E-06  1.000E-06
       1.000E-06  1.000E-06  1.000E-06  1.000E-06  1.000E-06  1.000E-06  1.000E-06  1.000E-06  1.000E-06  1.000E-06  1.000E-06

           SPECIFIC YIELD =  0.2000000     FOR LAYER 1

           SPECIFIC YIELD =  0.2000000     FOR LAYER 2

           SPECIFIC YIELD =  0.2000000     FOR LAYER 3
 END PROCESSING GRIDDATA

The observation utility is active for "EXPERIMENTAL"
 # File generated by Flopy version 3.3.5 on 11/06/2021 at 11:40:47.

Processing observation options:

Text output number of digits of precision set to: 10
The PRINT_INPUT option has been specified.


 OBSERVATIONS READ FROM FILE "experimental.obs"
 ----------------------------------------------------------------------------------------------------------------------------------------------------------------------------------------------------------------------------
 NAME                                     TYPE                                       TIME         LOCATION DATA                              OUTPUT FILENAME                                                                 
 ----------------------------------------------------------------------------------------------------------------------------------------------------------------------------------------------------------------------------
 B9-2                                     CONTINUOUS  HEAD                           ALL TIMES    "1 351  1 352"                             head.obs.csv                                                                    
 B10-2                                    CONTINUOUS  HEAD                           ALL TIMES    "1 1254  1 1255"                           head.obs.csv                                                                    
 B12-1                                    CONTINUOUS  HEAD                           ALL TIMES    "1 1387  1 1388"                           head.obs.csv                                                                    
 B16-1                                    CONTINUOUS  HEAD                           ALL TIMES    "1 1981  1 1982"                           head.obs.csv                                                                    
 B2-1                                     CONTINUOUS  HEAD                           ALL TIMES    "1 1752  1 1753"                           head.obs.csv                                                                    
 B22-1                                    CONTINUOUS  HEAD                           ALL TIMES    "1 1473  1 1474"                           head.obs.csv                                                                    
 B27                                      CONTINUOUS  HEAD                           ALL TIMES    "1 1388  1 1389"                           head.obs.csv                                                                    
 B29                                      CONTINUOUS  HEAD                           ALL TIMES    "1 1557  1 1558"                           head.obs.csv                                                                    
 KB1-1                                    CONTINUOUS  HEAD                           ALL TIMES    "1 2347  1 2348"                           head.obs.csv                                                                    
 KB4-3                                    CONTINUOUS  HEAD                           ALL TIMES    "1 1279  1 1280"                           head.obs.csv                                                                    
 NI1301-1                                 CONTINUOUS  HEAD                           ALL TIMES    "1 1475  1 1476"                           head.obs.csv                                                                    
 NI1302-1                                 CONTINUOUS  HEAD                           ALL TIMES    "1 1474  1 1475"                           head.obs.csv                                                                    
 NI1403-1                                 CONTINUOUS  HEAD                           ALL TIMES    "1 2356  1 2357"                           head.obs.csv                                                                    
 NI1405-1                                 CONTINUOUS  HEAD                           ALL TIMES    "1 2196  1 2197"                           head.obs.csv                                                                    
 NI1407-1                                 CONTINUOUS  HEAD                           ALL TIMES    "1 1471  1 1472"                           head.obs.csv                                                                    
 NI1408-1                                 CONTINUOUS  HEAD                           ALL TIMES    "1 1384  1 1385"                           head.obs.csv                                                                    
 NI1409-1                                 CONTINUOUS  HEAD                           ALL TIMES    "1 1678  1 1679"                           head.obs.csv                                                                    
 NI1410-1                                 CONTINUOUS  HEAD                           ALL TIMES    "1 1680  1 1681"                           head.obs.csv                                                                    
 NI1411-1                                 CONTINUOUS  HEAD                           ALL TIMES    "1 1569  1 1570"                           head.obs.csv                                                                    
 NI1412-1                                 CONTINUOUS  HEAD                           ALL TIMES    "1 2355  1 2356"                           head.obs.csv                                                                    
 NI1413-1                                 CONTINUOUS  HEAD                           ALL TIMES    "1 2450  1 2451"                           head.obs.csv                                                                    
 NI1501-1                                 CONTINUOUS  HEAD                           ALL TIMES    "1 1297  1 1298"                           head.obs.csv                                                                    
 NI1502-2                                 CONTINUOUS  HEAD                           ALL TIMES    "1 1147  1 1148"                           head.obs.csv                                                                    
 NI1503-2                                 CONTINUOUS  HEAD                           ALL TIMES    "1 1231  1 1232"                           head.obs.csv                                                                    
 NI1504-2                                 CONTINUOUS  HEAD                           ALL TIMES    "1 1310  1 1311"                           head.obs.csv                                                                    
 NI1505-1                                 CONTINUOUS  HEAD                           ALL TIMES    "1 1308  1 1309"                           head.obs.csv                                                                    
 NI1506-1                                 CONTINUOUS  HEAD                           ALL TIMES    "1 1387  1 1388"                           head.obs.csv                                                                    
 NI15-O1                                  CONTINUOUS  HEAD                           ALL TIMES    "1 2437  1 2438"                           head.obs.csv                                                                    
 NI15-O44                                 CONTINUOUS  HEAD                           ALL TIMES    "1 2251  1 2252"                           head.obs.csv                                                                    
 NI15-O46                                 CONTINUOUS  HEAD                           ALL TIMES    "1 1546  1 1547"                           head.obs.csv                                                                    
 NI15-O47                                 CONTINUOUS  HEAD                           ALL TIMES    "1 1639  1 1640"                           head.obs.csv                                                                    
 NI15-O48                                 CONTINUOUS  HEAD                           ALL TIMES    "1 947  1 948"                             head.obs.csv                                                                    
 NI1601-1                                 CONTINUOUS  HEAD                           ALL TIMES    "1 2255  1 2256"                           head.obs.csv                                                                    
 NI1602-1                                 CONTINUOUS  HEAD                           ALL TIMES    "1 2108  1 2109"                           head.obs.csv                                                                    
 NI1603-1                                 CONTINUOUS  HEAD                           ALL TIMES    "1 2040  1 2041"                           head.obs.csv                                                                    
 NI1605-1                                 CONTINUOUS  HEAD                           ALL TIMES    "1 2357  1 2358"                           head.obs.csv                                                                    
 NI1606-1                                 CONTINUOUS  HEAD                           ALL TIMES    "1 1887  1 1888"                           head.obs.csv                                                                    
 NI1607-1                                 CONTINUOUS  HEAD                           ALL TIMES    "1 2437  1 2438"                           head.obs.csv                                                                    
 NI1608-1                                 CONTINUOUS  HEAD                           ALL TIMES    "1 2516  1 2517"                           head.obs.csv                                                                    
 NI1609-2                                 CONTINUOUS  HEAD                           ALL TIMES    "1 2520  1 2521"                           head.obs.csv                                                                    
 NI1610-2                                 CONTINUOUS  HEAD                           ALL TIMES    "1 2518  1 2519"                           head.obs.csv                                                                    
 NI1611-1                                 CONTINUOUS  HEAD                           ALL TIMES    "1 2521  1 2522"                           head.obs.csv                                                                    
 NI1612-1                                 CONTINUOUS  HEAD                           ALL TIMES    "1 2340  1 2341"                           head.obs.csv                                                                    
 NI1613-1                                 CONTINUOUS  HEAD                           ALL TIMES    "1 2040  1 2041"                           head.obs.csv                                                                    
 NI1703-1                                 CONTINUOUS  HEAD                           ALL TIMES    "1 2439  1 2440"                           head.obs.csv                                                                    
 NI1704-1                                 CONTINUOUS  HEAD                           ALL TIMES    "1 1033  1 1034"                           head.obs.csv                                                                    
 NI1705-1                                 CONTINUOUS  HEAD                           ALL TIMES    "1 1198  1 1199"                           head.obs.csv                                                                    
 NI1712-1                                 CONTINUOUS  HEAD                           ALL TIMES    "1 2523  1 2524"                           head.obs.csv                                                                    
 NI1801-1                                 CONTINUOUS  HEAD                           ALL TIMES    "1 1113  1 1114"                           head.obs.csv                                                                    
 NI1802-1                                 CONTINUOUS  HEAD                           ALL TIMES    "1 1113  1 1114"                           head.obs.csv                                                                    
 NI1803-1                                 CONTINUOUS  HEAD                           ALL TIMES    "1 1197  1 1198"                           head.obs.csv                                                                    
 NI1804-1                                 CONTINUOUS  HEAD                           ALL TIMES    "1 1277  1 1278"                           head.obs.csv                                                                    
 B9-4                                     CONTINUOUS  HEAD                           ALL TIMES    "2 351  2 352"                             head.obs.csv                                                                    
 B10-4                                    CONTINUOUS  HEAD                           ALL TIMES    "2 1254  2 1255"                           head.obs.csv                                                                    
 B13-1                                    CONTINUOUS  HEAD                           ALL TIMES    "2 1475  2 1476"                           head.obs.csv                                                                    
 B14-1                                    CONTINUOUS  HEAD                           ALL TIMES    "2 1682  2 1683"                           head.obs.csv                                                                    
 B15-1                                    CONTINUOUS  HEAD                           ALL TIMES    "2 1391  2 1392"                           head.obs.csv                                                                    
 B20-1                                    CONTINUOUS  HEAD                           ALL TIMES    "2 1308  2 1309"                           head.obs.csv                                                                    
 B21-1                                    CONTINUOUS  HEAD                           ALL TIMES    "2 1474  2 1475"                           head.obs.csv                                                                    
 B2-2                                     CONTINUOUS  HEAD                           ALL TIMES    "2 1752  2 1753"                           head.obs.csv                                                                    
 B22-2                                    CONTINUOUS  HEAD                           ALL TIMES    "2 1473  2 1474"                           head.obs.csv                                                                    
 B26                                      CONTINUOUS  HEAD                           ALL TIMES    "2 1476  2 1477"                           head.obs.csv                                                                    
 B35                                      CONTINUOUS  HEAD                           ALL TIMES    "2 2260  2 2261"                           head.obs.csv                                                                    
 B36                                      CONTINUOUS  HEAD                           ALL TIMES    "2 2353  2 2354"                           head.obs.csv                                                                    
 B37                                      CONTINUOUS  HEAD                           ALL TIMES    "2 2355  2 2356"                           head.obs.csv                                                                    
 B8-1                                     CONTINUOUS  HEAD                           ALL TIMES    "2 2013  2 2014"                           head.obs.csv                                                                    
 KB4-4                                    CONTINUOUS  HEAD                           ALL TIMES    "2 1279  2 1280"                           head.obs.csv                                                                    
 NI1301-2                                 CONTINUOUS  HEAD                           ALL TIMES    "2 1475  2 1476"                           head.obs.csv                                                                    
 NI1302-2                                 CONTINUOUS  HEAD                           ALL TIMES    "2 1474  2 1475"                           head.obs.csv                                                                    
 NI1401-1                                 CONTINUOUS  HEAD                           ALL TIMES    "2 1568  2 1569"                           head.obs.csv                                                                    
 NI1402-1                                 CONTINUOUS  HEAD                           ALL TIMES    "2 1387  2 1388"                           head.obs.csv                                                                    
 NI1404-1                                 CONTINUOUS  HEAD                           ALL TIMES    "2 1475  2 1476"                           head.obs.csv                                                                    
 NI1407-2                                 CONTINUOUS  HEAD                           ALL TIMES    "2 1471  2 1472"                           head.obs.csv                                                                    
 NI1408-2                                 CONTINUOUS  HEAD                           ALL TIMES    "2 1384  2 1385"                           head.obs.csv                                                                    
 NI1409-2                                 CONTINUOUS  HEAD                           ALL TIMES    "2 1678  2 1679"                           head.obs.csv                                                                    
 NI1410-2                                 CONTINUOUS  HEAD                           ALL TIMES    "2 1680  2 1681"                           head.obs.csv                                                                    
 NI1411-2                                 CONTINUOUS  HEAD                           ALL TIMES    "2 1569  2 1570"                           head.obs.csv                                                                    
 NI1413-2                                 CONTINUOUS  HEAD                           ALL TIMES    "2 2450  2 2451"                           head.obs.csv                                                                    
 NI1501-2                                 CONTINUOUS  HEAD                           ALL TIMES    "2 1297  2 1298"                           head.obs.csv                                                                    
 NI1505-2                                 CONTINUOUS  HEAD                           ALL TIMES    "2 1308  2 1309"                           head.obs.csv                                                                    
 NI1506-2                                 CONTINUOUS  HEAD                           ALL TIMES    "2 1387  2 1388"                           head.obs.csv                                                                    
 NI1507-2                                 CONTINUOUS  HEAD                           ALL TIMES    "2 1226  2 1227"                           head.obs.csv                                                                    
 NI1601-2                                 CONTINUOUS  HEAD                           ALL TIMES    "2 2255  2 2256"                           head.obs.csv                                                                    
 NI1604-1                                 CONTINUOUS  HEAD                           ALL TIMES    "2 2354  2 2355"                           head.obs.csv                                                                    
 NI1606-2                                 CONTINUOUS  HEAD                           ALL TIMES    "2 1887  2 1888"                           head.obs.csv                                                                    
 NI1607-2                                 CONTINUOUS  HEAD                           ALL TIMES    "2 2437  2 2438"                           head.obs.csv                                                                    
 NI1608-2                                 CONTINUOUS  HEAD                           ALL TIMES    "2 2516  2 2517"                           head.obs.csv                                                                    
 NI1703-2                                 CONTINUOUS  HEAD                           ALL TIMES    "2 2439  2 2440"                           head.obs.csv                                                                    
 NI1706-1                                 CONTINUOUS  HEAD                           ALL TIMES    "2 1439  2 1440"                           head.obs.csv                                                                    
 NI1709-1                                 CONTINUOUS  HEAD                           ALL TIMES    "2 2266  2 2267"                           head.obs.csv                                                                    
 NI1801-3                                 CONTINUOUS  HEAD                           ALL TIMES    "2 1113  2 1114"                           head.obs.csv                                                                    
 NI1803-3                                 CONTINUOUS  HEAD                           ALL TIMES    "2 1197  2 1198"                           head.obs.csv                                                                    
 NI1804-3                                 CONTINUOUS  HEAD                           ALL TIMES    "2 1277  2 1278"                           head.obs.csv                                                                    
 B9-5                                     CONTINUOUS  HEAD                           ALL TIMES    "3 351  3 352"                             head.obs.csv                                                                    
 B10-5                                    CONTINUOUS  HEAD                           ALL TIMES    "3 1254  3 1255"                           head.obs.csv                                                                    
 B16-2                                    CONTINUOUS  HEAD                           ALL TIMES    "3 1981  3 1982"                           head.obs.csv                                                                    
 B19-4                                    CONTINUOUS  HEAD                           ALL TIMES    "3 2357  3 2358"                           head.obs.csv                                                                    
 B21-3                                    CONTINUOUS  HEAD                           ALL TIMES    "3 1474  3 1475"                           head.obs.csv                                                                    
 B22-4                                    CONTINUOUS  HEAD                           ALL TIMES    "3 1473  3 1474"                           head.obs.csv                                                                    
 B2-3                                     CONTINUOUS  HEAD                           ALL TIMES    "3 1752  3 1753"                           head.obs.csv                                                                    
 B30                                      CONTINUOUS  HEAD                           ALL TIMES    "3 1296  3 1297"                           head.obs.csv                                                                    
 B34                                      CONTINUOUS  HEAD                           ALL TIMES    "3 2259  3 2260"                           head.obs.csv                                                                    
 B4                                       CONTINUOUS  HEAD                           ALL TIMES    "3 994  3 995"                             head.obs.csv                                                                    
 B8-2                                     CONTINUOUS  HEAD                           ALL TIMES    "3 2013  3 2014"                           head.obs.csv                                                                    
 NI1301-3                                 CONTINUOUS  HEAD                           ALL TIMES    "3 1475  3 1476"                           head.obs.csv                                                                    
 NI1302-3                                 CONTINUOUS  HEAD                           ALL TIMES    "3 1474  3 1475"                           head.obs.csv                                                                    
 NI1401-2                                 CONTINUOUS  HEAD                           ALL TIMES    "3 1568  3 1569"                           head.obs.csv                                                                    
 NI1402-2                                 CONTINUOUS  HEAD                           ALL TIMES    "3 1387  3 1388"                           head.obs.csv                                                                    
 NI1403-2                                 CONTINUOUS  HEAD                           ALL TIMES    "3 2356  3 2357"                           head.obs.csv                                                                    
 NI1404-2                                 CONTINUOUS  HEAD                           ALL TIMES    "3 1475  3 1476"                           head.obs.csv                                                                    
 NI1405-2                                 CONTINUOUS  HEAD                           ALL TIMES    "3 2196  3 2197"                           head.obs.csv                                                                    
 NI1406-1                                 CONTINUOUS  HEAD                           ALL TIMES    "3 1474  3 1475"                           head.obs.csv                                                                    
 NI1407-3                                 CONTINUOUS  HEAD                           ALL TIMES    "3 1471  3 1472"                           head.obs.csv                                                                    
 NI1408-3                                 CONTINUOUS  HEAD                           ALL TIMES    "3 1384  3 1385"                           head.obs.csv                                                                    
 NI1409-3                                 CONTINUOUS  HEAD                           ALL TIMES    "3 1678  3 1679"                           head.obs.csv                                                                    
 NI1410-3                                 CONTINUOUS  HEAD                           ALL TIMES    "3 1680  3 1681"                           head.obs.csv                                                                    
 NI1411-3                                 CONTINUOUS  HEAD                           ALL TIMES    "3 1569  3 1570"                           head.obs.csv                                                                    
 NI1412-3                                 CONTINUOUS  HEAD                           ALL TIMES    "3 2355  3 2356"                           head.obs.csv                                                                    
 NI1413-3                                 CONTINUOUS  HEAD                           ALL TIMES    "3 2450  3 2451"                           head.obs.csv                                                                    
 NI1501-3                                 CONTINUOUS  HEAD                           ALL TIMES    "3 1297  3 1298"                           head.obs.csv                                                                    
 NI1502-3                                 CONTINUOUS  HEAD                           ALL TIMES    "3 1147  3 1148"                           head.obs.csv                                                                    
 NI1503-3                                 CONTINUOUS  HEAD                           ALL TIMES    "3 1231  3 1232"                           head.obs.csv                                                                    
 NI1504-3                                 CONTINUOUS  HEAD                           ALL TIMES    "3 1310  3 1311"                           head.obs.csv                                                                    
 NI1505-3                                 CONTINUOUS  HEAD                           ALL TIMES    "3 1308  3 1309"                           head.obs.csv                                                                    
 NI1506-3                                 CONTINUOUS  HEAD                           ALL TIMES    "3 1387  3 1388"                           head.obs.csv                                                                    
 NI1507-3                                 CONTINUOUS  HEAD                           ALL TIMES    "3 1226  3 1227"                           head.obs.csv                                                                    
 NI1601-3                                 CONTINUOUS  HEAD                           ALL TIMES    "3 2255  3 2256"                           head.obs.csv                                                                    
 NI1602-2                                 CONTINUOUS  HEAD                           ALL TIMES    "3 2108  3 2109"                           head.obs.csv                                                                    
 NI1603-2                                 CONTINUOUS  HEAD                           ALL TIMES    "3 2040  3 2041"                           head.obs.csv                                                                    
 NI1604-3                                 CONTINUOUS  HEAD                           ALL TIMES    "3 2354  3 2355"                           head.obs.csv                                                                    
 NI1605-3                                 CONTINUOUS  HEAD                           ALL TIMES    "3 2357  3 2358"                           head.obs.csv                                                                    
 NI1606-3                                 CONTINUOUS  HEAD                           ALL TIMES    "3 1887  3 1888"                           head.obs.csv                                                                    
 NI1607-3                                 CONTINUOUS  HEAD                           ALL TIMES    "3 2437  3 2438"                           head.obs.csv                                                                    
 NI1608-3                                 CONTINUOUS  HEAD                           ALL TIMES    "3 2516  3 2517"                           head.obs.csv                                                                    
 NI1609-3                                 CONTINUOUS  HEAD                           ALL TIMES    "3 2520  3 2521"                           head.obs.csv                                                                    
 NI1612-2                                 CONTINUOUS  HEAD                           ALL TIMES    "3 2340  3 2341"                           head.obs.csv                                                                    
 NI1701-1                                 CONTINUOUS  HEAD                           ALL TIMES    "3 2252  3 2253"                           head.obs.csv                                                                    
 NI1702-1                                 CONTINUOUS  HEAD                           ALL TIMES    "3 2184  3 2185"                           head.obs.csv                                                                    
 NI1704-2                                 CONTINUOUS  HEAD                           ALL TIMES    "3 1033  3 1034"                           head.obs.csv                                                                    
 NI1705-2                                 CONTINUOUS  HEAD                           ALL TIMES    "3 1198  3 1199"                           head.obs.csv                                                                    
 NI1706-2                                 CONTINUOUS  HEAD                           ALL TIMES    "3 1439  3 1440"                           head.obs.csv                                                                    
 NI1707-1                                 CONTINUOUS  HEAD                           ALL TIMES    "3 1356  3 1357"                           head.obs.csv                                                                    
 NI1708-1                                 CONTINUOUS  HEAD                           ALL TIMES    "3 2448  3 2449"                           head.obs.csv                                                                    
 NI1711-1                                 CONTINUOUS  HEAD                           ALL TIMES    "3 2530  3 2531"                           head.obs.csv                                                                    
 ----------------------------------------------------------------------------------------------------------------------------------------------------------------------------------------------------------------------------


    BINARY GRID INFORMATION WILL BE WRITTEN TO:
      UNIT NUMBER: 1018
      FILE NAME: C:\Users\nat12nho\Documents\Development\repos\hagfors_gwm\experimental\experimental.disv.grb

 OPENED C:\Users\nat12nho\Documents\Development\repos\hagfors_gwm\experimental\experimental.disv.grb
 FILE TYPE:DATA(BINARY)   UNIT 1018   STATUS:REPLACE             
 FORMAT:UNFORMATTED            ACCESS:STREAM              
 ACTION:READWRITE           

      THE LAST TIME STEP WILL BE PRINTED
      THE LAST TIME STEP WILL BE PRINTED
 # File generated by Flopy version 3.3.5 on 11/06/2021 at 11:40:47.

 PROCESSING OC OPTIONS

    BUDGET INFORMATION WILL BE WRITTEN TO:
      UNIT NUMBER: 1019
      FILE NAME: experimental.cbb

 OPENED experimental.cbb
 FILE TYPE:DATA(BINARY)   UNIT 1019   STATUS:REPLACE             
 FORMAT:UNFORMATTED            ACCESS:STREAM              
 ACTION:READWRITE           

    HEAD INFORMATION WILL BE WRITTEN TO:
      UNIT NUMBER: 1020
      FILE NAME: experimental.hds

 OPENED experimental.hds
 FILE TYPE:DATA(BINARY)   UNIT 1020   STATUS:REPLACE             
 FORMAT:UNFORMATTED            ACCESS:STREAM              
 ACTION:READWRITE           

 END OF OC OPTIONS

The observation utility is active for "SFR"
 # File generated by Flopy version 3.3.5 on 11/06/2021 at 11:40:47.

Processing observation options:

Text output number of digits of precision set to: 10
The PRINT_INPUT option has been specified.


 OBSERVATIONS READ FROM FILE "experimental_leakage.sfr.obs"
 ----------------------------------------------------------------------------------------------------------------------------------------------------------------------------------------------------------------------------
 NAME                                     TYPE                                       TIME         LOCATION DATA                              OUTPUT FILENAME                                                                 
 ----------------------------------------------------------------------------------------------------------------------------------------------------------------------------------------------------------------------------
 LEAK-1                                   CONTINUOUS  SFR                            ALL TIMES    "1"                                        sfr_leakage.obs.csv                                                             
 LEAK-2                                   CONTINUOUS  SFR                            ALL TIMES    "2"                                        sfr_leakage.obs.csv                                                             
 LEAK-3                                   CONTINUOUS  SFR                            ALL TIMES    "3"                                        sfr_leakage.obs.csv                                                             
 LEAK-4                                   CONTINUOUS  SFR                            ALL TIMES    "4"                                        sfr_leakage.obs.csv                                                             
 LEAK-5                                   CONTINUOUS  SFR                            ALL TIMES    "5"                                        sfr_leakage.obs.csv                                                             
 LEAK-6                                   CONTINUOUS  SFR                            ALL TIMES    "6"                                        sfr_leakage.obs.csv                                                             
 LEAK-7                                   CONTINUOUS  SFR                            ALL TIMES    "7"                                        sfr_leakage.obs.csv                                                             
 LEAK-8                                   CONTINUOUS  SFR                            ALL TIMES    "8"                                        sfr_leakage.obs.csv                                                             
 LEAK-9                                   CONTINUOUS  SFR                            ALL TIMES    "9"                                        sfr_leakage.obs.csv                                                             
 LEAK-10                                  CONTINUOUS  SFR                            ALL TIMES    "10"                                       sfr_leakage.obs.csv                                                             
 LEAK-11                                  CONTINUOUS  SFR                            ALL TIMES    "11"                                       sfr_leakage.obs.csv                                                             
 LEAK-12                                  CONTINUOUS  SFR                            ALL TIMES    "12"                                       sfr_leakage.obs.csv                                                             
 LEAK-13                                  CONTINUOUS  SFR                            ALL TIMES    "13"                                       sfr_leakage.obs.csv                                                             
 LEAK-14                                  CONTINUOUS  SFR                            ALL TIMES    "14"                                       sfr_leakage.obs.csv                                                             
 LEAK-15                                  CONTINUOUS  SFR                            ALL TIMES    "15"                                       sfr_leakage.obs.csv                                                             
 LEAK-16                                  CONTINUOUS  SFR                            ALL TIMES    "16"                                       sfr_leakage.obs.csv                                                             
 LEAK-17                                  CONTINUOUS  SFR                            ALL TIMES    "17"                                       sfr_leakage.obs.csv                                                             
 LEAK-18                                  CONTINUOUS  SFR                            ALL TIMES    "18"                                       sfr_leakage.obs.csv                                                             
 LEAK-19                                  CONTINUOUS  SFR                            ALL TIMES    "19"                                       sfr_leakage.obs.csv                                                             
 LEAK-20                                  CONTINUOUS  SFR                            ALL TIMES    "20"                                       sfr_leakage.obs.csv                                                             
 LEAK-21                                  CONTINUOUS  SFR                            ALL TIMES    "21"                                       sfr_leakage.obs.csv                                                             
 LEAK-22                                  CONTINUOUS  SFR                            ALL TIMES    "22"                                       sfr_leakage.obs.csv                                                             
 LEAK-23                                  CONTINUOUS  SFR                            ALL TIMES    "23"                                       sfr_leakage.obs.csv                                                             
 LEAK-24                                  CONTINUOUS  SFR                            ALL TIMES    "24"                                       sfr_leakage.obs.csv                                                             
 LEAK-25                                  CONTINUOUS  SFR                            ALL TIMES    "25"                                       sfr_leakage.obs.csv                                                             
 LEAK-26                                  CONTINUOUS  SFR                            ALL TIMES    "26"                                       sfr_leakage.obs.csv                                                             
 LEAK-27                                  CONTINUOUS  SFR                            ALL TIMES    "27"                                       sfr_leakage.obs.csv                                                             
 LEAK-28                                  CONTINUOUS  SFR                            ALL TIMES    "28"                                       sfr_leakage.obs.csv                                                             
 LEAK-29                                  CONTINUOUS  SFR                            ALL TIMES    "29"                                       sfr_leakage.obs.csv                                                             
 LEAK-30                                  CONTINUOUS  SFR                            ALL TIMES    "30"                                       sfr_leakage.obs.csv                                                             
 LEAK-31                                  CONTINUOUS  SFR                            ALL TIMES    "31"                                       sfr_leakage.obs.csv                                                             
 LEAK-32                                  CONTINUOUS  SFR                            ALL TIMES    "32"                                       sfr_leakage.obs.csv                                                             
 LEAK-33                                  CONTINUOUS  SFR                            ALL TIMES    "33"                                       sfr_leakage.obs.csv                                                             
 LEAK-34                                  CONTINUOUS  SFR                            ALL TIMES    "34"                                       sfr_leakage.obs.csv                                                             
 LEAK-35                                  CONTINUOUS  SFR                            ALL TIMES    "35"                                       sfr_leakage.obs.csv                                                             
 LEAK-36                                  CONTINUOUS  SFR                            ALL TIMES    "36"                                       sfr_leakage.obs.csv                                                             
 LEAK-37                                  CONTINUOUS  SFR                            ALL TIMES    "37"                                       sfr_leakage.obs.csv                                                             
 LEAK-38                                  CONTINUOUS  SFR                            ALL TIMES    "38"                                       sfr_leakage.obs.csv                                                             
 LEAK-39                                  CONTINUOUS  SFR                            ALL TIMES    "39"                                       sfr_leakage.obs.csv                                                             
 LEAK-40                                  CONTINUOUS  SFR                            ALL TIMES    "40"                                       sfr_leakage.obs.csv                                                             
 LEAK-41                                  CONTINUOUS  SFR                            ALL TIMES    "41"                                       sfr_leakage.obs.csv                                                             
 LEAK-42                                  CONTINUOUS  SFR                            ALL TIMES    "42"                                       sfr_leakage.obs.csv                                                             
 LEAK-43                                  CONTINUOUS  SFR                            ALL TIMES    "43"                                       sfr_leakage.obs.csv                                                             
 LEAK-44                                  CONTINUOUS  SFR                            ALL TIMES    "44"                                       sfr_leakage.obs.csv                                                             
 LEAK-45                                  CONTINUOUS  SFR                            ALL TIMES    "45"                                       sfr_leakage.obs.csv                                                             
 LEAK-46                                  CONTINUOUS  SFR                            ALL TIMES    "46"                                       sfr_leakage.obs.csv                                                             
 LEAK-47                                  CONTINUOUS  SFR                            ALL TIMES    "47"                                       sfr_leakage.obs.csv                                                             
 LEAK-48                                  CONTINUOUS  SFR                            ALL TIMES    "48"                                       sfr_leakage.obs.csv                                                             
 LEAK-49                                  CONTINUOUS  SFR                            ALL TIMES    "49"                                       sfr_leakage.obs.csv                                                             
 LEAK-50                                  CONTINUOUS  SFR                            ALL TIMES    "50"                                       sfr_leakage.obs.csv                                                             
 LEAK-51                                  CONTINUOUS  SFR                            ALL TIMES    "51"                                       sfr_leakage.obs.csv                                                             
 LEAK-52                                  CONTINUOUS  SFR                            ALL TIMES    "52"                                       sfr_leakage.obs.csv                                                             
 LEAK-53                                  CONTINUOUS  SFR                            ALL TIMES    "53"                                       sfr_leakage.obs.csv                                                             
 LEAK-54                                  CONTINUOUS  SFR                            ALL TIMES    "54"                                       sfr_leakage.obs.csv                                                             
 LEAK-55                                  CONTINUOUS  SFR                            ALL TIMES    "55"                                       sfr_leakage.obs.csv                                                             
 LEAK-56                                  CONTINUOUS  SFR                            ALL TIMES    "56"                                       sfr_leakage.obs.csv                                                             
 LEAK-57                                  CONTINUOUS  SFR                            ALL TIMES    "57"                                       sfr_leakage.obs.csv                                                             
 LEAK-58                                  CONTINUOUS  SFR                            ALL TIMES    "58"                                       sfr_leakage.obs.csv                                                             
 LEAK-59                                  CONTINUOUS  SFR                            ALL TIMES    "59"                                       sfr_leakage.obs.csv                                                             
 LEAK-60                                  CONTINUOUS  SFR                            ALL TIMES    "60"                                       sfr_leakage.obs.csv                                                             
 LEAK-61                                  CONTINUOUS  SFR                            ALL TIMES    "61"                                       sfr_leakage.obs.csv                                                             
 LEAK-62                                  CONTINUOUS  SFR                            ALL TIMES    "62"                                       sfr_leakage.obs.csv                                                             
 LEAK-63                                  CONTINUOUS  SFR                            ALL TIMES    "63"                                       sfr_leakage.obs.csv                                                             
 LEAK-64                                  CONTINUOUS  SFR                            ALL TIMES    "64"                                       sfr_leakage.obs.csv                                                             
 LEAK-65                                  CONTINUOUS  SFR                            ALL TIMES    "65"                                       sfr_leakage.obs.csv                                                             
 LEAK-66                                  CONTINUOUS  SFR                            ALL TIMES    "66"                                       sfr_leakage.obs.csv                                                             
 LEAK-67                                  CONTINUOUS  SFR                            ALL TIMES    "67"                                       sfr_leakage.obs.csv                                                             
 LEAK-68                                  CONTINUOUS  SFR                            ALL TIMES    "68"                                       sfr_leakage.obs.csv                                                             
 LEAK-69                                  CONTINUOUS  SFR                            ALL TIMES    "69"                                       sfr_leakage.obs.csv                                                             
 LEAK-70                                  CONTINUOUS  SFR                            ALL TIMES    "70"                                       sfr_leakage.obs.csv                                                             
 LEAK-71                                  CONTINUOUS  SFR                            ALL TIMES    "71"                                       sfr_leakage.obs.csv                                                             
 LEAK-72                                  CONTINUOUS  SFR                            ALL TIMES    "72"                                       sfr_leakage.obs.csv                                                             
 LEAK-73                                  CONTINUOUS  SFR                            ALL TIMES    "73"                                       sfr_leakage.obs.csv                                                             
 LEAK-74                                  CONTINUOUS  SFR                            ALL TIMES    "74"                                       sfr_leakage.obs.csv                                                             
 LEAK-75                                  CONTINUOUS  SFR                            ALL TIMES    "75"                                       sfr_leakage.obs.csv                                                             
 LEAK-76                                  CONTINUOUS  SFR                            ALL TIMES    "76"                                       sfr_leakage.obs.csv                                                             
 LEAK-77                                  CONTINUOUS  SFR                            ALL TIMES    "77"                                       sfr_leakage.obs.csv                                                             
 LEAK-78                                  CONTINUOUS  SFR                            ALL TIMES    "78"                                       sfr_leakage.obs.csv                                                             
 LEAK-79                                  CONTINUOUS  SFR                            ALL TIMES    "79"                                       sfr_leakage.obs.csv                                                             
 LEAK-80                                  CONTINUOUS  SFR                            ALL TIMES    "80"                                       sfr_leakage.obs.csv                                                             
 LEAK-81                                  CONTINUOUS  SFR                            ALL TIMES    "81"                                       sfr_leakage.obs.csv                                                             
 LEAK-82                                  CONTINUOUS  SFR                            ALL TIMES    "82"                                       sfr_leakage.obs.csv                                                             
 LEAK-83                                  CONTINUOUS  SFR                            ALL TIMES    "83"                                       sfr_leakage.obs.csv                                                             
 LEAK-84                                  CONTINUOUS  SFR                            ALL TIMES    "84"                                       sfr_leakage.obs.csv                                                             
 LEAK-85                                  CONTINUOUS  SFR                            ALL TIMES    "85"                                       sfr_leakage.obs.csv                                                             
 LEAK-86                                  CONTINUOUS  SFR                            ALL TIMES    "86"                                       sfr_leakage.obs.csv                                                             
 LEAK-87                                  CONTINUOUS  SFR                            ALL TIMES    "87"                                       sfr_leakage.obs.csv                                                             
 LEAK-88                                  CONTINUOUS  SFR                            ALL TIMES    "88"                                       sfr_leakage.obs.csv                                                             
 LEAK-89                                  CONTINUOUS  SFR                            ALL TIMES    "89"                                       sfr_leakage.obs.csv                                                             
 LEAK-90                                  CONTINUOUS  SFR                            ALL TIMES    "90"                                       sfr_leakage.obs.csv                                                             
 LEAK-91                                  CONTINUOUS  SFR                            ALL TIMES    "91"                                       sfr_leakage.obs.csv                                                             
 LEAK-92                                  CONTINUOUS  SFR                            ALL TIMES    "92"                                       sfr_leakage.obs.csv                                                             
 LEAK-93                                  CONTINUOUS  SFR                            ALL TIMES    "93"                                       sfr_leakage.obs.csv                                                             
 LEAK-94                                  CONTINUOUS  SFR                            ALL TIMES    "94"                                       sfr_leakage.obs.csv                                                             
 LEAK-95                                  CONTINUOUS  SFR                            ALL TIMES    "95"                                       sfr_leakage.obs.csv                                                             
 LEAK-96                                  CONTINUOUS  SFR                            ALL TIMES    "96"                                       sfr_leakage.obs.csv                                                             
 LEAK-97                                  CONTINUOUS  SFR                            ALL TIMES    "97"                                       sfr_leakage.obs.csv                                                             
 LEAK-98                                  CONTINUOUS  SFR                            ALL TIMES    "98"                                       sfr_leakage.obs.csv                                                             
 LEAK-99                                  CONTINUOUS  SFR                            ALL TIMES    "99"                                       sfr_leakage.obs.csv                                                             
 LEAK-100                                 CONTINUOUS  SFR                            ALL TIMES    "100"                                      sfr_leakage.obs.csv                                                             
 LEAK-101                                 CONTINUOUS  SFR                            ALL TIMES    "101"                                      sfr_leakage.obs.csv                                                             
 LEAK-102                                 CONTINUOUS  SFR                            ALL TIMES    "102"                                      sfr_leakage.obs.csv                                                             
 LEAK-103                                 CONTINUOUS  SFR                            ALL TIMES    "103"                                      sfr_leakage.obs.csv                                                             
 LEAK-104                                 CONTINUOUS  SFR                            ALL TIMES    "104"                                      sfr_leakage.obs.csv                                                             
 LEAK-105                                 CONTINUOUS  SFR                            ALL TIMES    "105"                                      sfr_leakage.obs.csv                                                             
 LEAK-106                                 CONTINUOUS  SFR                            ALL TIMES    "106"                                      sfr_leakage.obs.csv                                                             
 LEAK-107                                 CONTINUOUS  SFR                            ALL TIMES    "107"                                      sfr_leakage.obs.csv                                                             
 LEAK-108                                 CONTINUOUS  SFR                            ALL TIMES    "108"                                      sfr_leakage.obs.csv                                                             
 LEAK-109                                 CONTINUOUS  SFR                            ALL TIMES    "109"                                      sfr_leakage.obs.csv                                                             
 LEAK-110                                 CONTINUOUS  SFR                            ALL TIMES    "110"                                      sfr_leakage.obs.csv                                                             
 LEAK-111                                 CONTINUOUS  SFR                            ALL TIMES    "111"                                      sfr_leakage.obs.csv                                                             
 LEAK-112                                 CONTINUOUS  SFR                            ALL TIMES    "112"                                      sfr_leakage.obs.csv                                                             
 LEAK-113                                 CONTINUOUS  SFR                            ALL TIMES    "113"                                      sfr_leakage.obs.csv                                                             
 LEAK-114                                 CONTINUOUS  SFR                            ALL TIMES    "114"                                      sfr_leakage.obs.csv                                                             
 LEAK-115                                 CONTINUOUS  SFR                            ALL TIMES    "115"                                      sfr_leakage.obs.csv                                                             
 LEAK-116                                 CONTINUOUS  SFR                            ALL TIMES    "116"                                      sfr_leakage.obs.csv                                                             
 LEAK-117                                 CONTINUOUS  SFR                            ALL TIMES    "117"                                      sfr_leakage.obs.csv                                                             
 LEAK-118                                 CONTINUOUS  SFR                            ALL TIMES    "118"                                      sfr_leakage.obs.csv                                                             
 LEAK-119                                 CONTINUOUS  SFR                            ALL TIMES    "119"                                      sfr_leakage.obs.csv                                                             
 LEAK-120                                 CONTINUOUS  SFR                            ALL TIMES    "120"                                      sfr_leakage.obs.csv                                                             
 LEAK-121                                 CONTINUOUS  SFR                            ALL TIMES    "121"                                      sfr_leakage.obs.csv                                                             
 LEAK-122                                 CONTINUOUS  SFR                            ALL TIMES    "122"                                      sfr_leakage.obs.csv                                                             
 LEAK-123                                 CONTINUOUS  SFR                            ALL TIMES    "123"                                      sfr_leakage.obs.csv                                                             
 LEAK-124                                 CONTINUOUS  SFR                            ALL TIMES    "124"                                      sfr_leakage.obs.csv                                                             
 LEAK-125                                 CONTINUOUS  SFR                            ALL TIMES    "125"                                      sfr_leakage.obs.csv                                                             
 LEAK-126                                 CONTINUOUS  SFR                            ALL TIMES    "126"                                      sfr_leakage.obs.csv                                                             
 LEAK-127                                 CONTINUOUS  SFR                            ALL TIMES    "127"                                      sfr_leakage.obs.csv                                                             
 LEAK-128                                 CONTINUOUS  SFR                            ALL TIMES    "128"                                      sfr_leakage.obs.csv                                                             
 LEAK-129                                 CONTINUOUS  SFR                            ALL TIMES    "129"                                      sfr_leakage.obs.csv                                                             
 LEAK-130                                 CONTINUOUS  SFR                            ALL TIMES    "130"                                      sfr_leakage.obs.csv                                                             
 LEAK-131                                 CONTINUOUS  SFR                            ALL TIMES    "131"                                      sfr_leakage.obs.csv                                                             
 LEAK-132                                 CONTINUOUS  SFR                            ALL TIMES    "132"                                      sfr_leakage.obs.csv                                                             
 LEAK-133                                 CONTINUOUS  SFR                            ALL TIMES    "133"                                      sfr_leakage.obs.csv                                                             
 LEAK-134                                 CONTINUOUS  SFR                            ALL TIMES    "134"                                      sfr_leakage.obs.csv                                                             
 LEAK-135                                 CONTINUOUS  SFR                            ALL TIMES    "135"                                      sfr_leakage.obs.csv                                                             
 LEAK-136                                 CONTINUOUS  SFR                            ALL TIMES    "136"                                      sfr_leakage.obs.csv                                                             
 LEAK-137                                 CONTINUOUS  SFR                            ALL TIMES    "137"                                      sfr_leakage.obs.csv                                                             
 LEAK-138                                 CONTINUOUS  SFR                            ALL TIMES    "138"                                      sfr_leakage.obs.csv                                                             
 LEAK-139                                 CONTINUOUS  SFR                            ALL TIMES    "139"                                      sfr_leakage.obs.csv                                                             
 LEAK-140                                 CONTINUOUS  SFR                            ALL TIMES    "140"                                      sfr_leakage.obs.csv                                                             
 LEAK-141                                 CONTINUOUS  SFR                            ALL TIMES    "141"                                      sfr_leakage.obs.csv                                                             
 LEAK-142                                 CONTINUOUS  SFR                            ALL TIMES    "142"                                      sfr_leakage.obs.csv                                                             
 LEAK-143                                 CONTINUOUS  SFR                            ALL TIMES    "143"                                      sfr_leakage.obs.csv                                                             
 LEAK-144                                 CONTINUOUS  SFR                            ALL TIMES    "144"                                      sfr_leakage.obs.csv                                                             
 LEAK-145                                 CONTINUOUS  SFR                            ALL TIMES    "145"                                      sfr_leakage.obs.csv                                                             
 LEAK-146                                 CONTINUOUS  SFR                            ALL TIMES    "146"                                      sfr_leakage.obs.csv                                                             
 LEAK-147                                 CONTINUOUS  SFR                            ALL TIMES    "147"                                      sfr_leakage.obs.csv                                                             
 LEAK-148                                 CONTINUOUS  SFR                            ALL TIMES    "148"                                      sfr_leakage.obs.csv                                                             
 LEAK-149                                 CONTINUOUS  SFR                            ALL TIMES    "149"                                      sfr_leakage.obs.csv                                                             
 LEAK-150                                 CONTINUOUS  SFR                            ALL TIMES    "150"                                      sfr_leakage.obs.csv                                                             
 LEAK-151                                 CONTINUOUS  SFR                            ALL TIMES    "151"                                      sfr_leakage.obs.csv                                                             
 LEAK-152                                 CONTINUOUS  SFR                            ALL TIMES    "152"                                      sfr_leakage.obs.csv                                                             
 LEAK-153                                 CONTINUOUS  SFR                            ALL TIMES    "153"                                      sfr_leakage.obs.csv                                                             
 LEAK-154                                 CONTINUOUS  SFR                            ALL TIMES    "154"                                      sfr_leakage.obs.csv                                                             
 LEAK-155                                 CONTINUOUS  SFR                            ALL TIMES    "155"                                      sfr_leakage.obs.csv                                                             
 LEAK-156                                 CONTINUOUS  SFR                            ALL TIMES    "156"                                      sfr_leakage.obs.csv                                                             
 LEAK-157                                 CONTINUOUS  SFR                            ALL TIMES    "157"                                      sfr_leakage.obs.csv                                                             
 LEAK-158                                 CONTINUOUS  SFR                            ALL TIMES    "158"                                      sfr_leakage.obs.csv                                                             
 LEAK-159                                 CONTINUOUS  SFR                            ALL TIMES    "159"                                      sfr_leakage.obs.csv                                                             
 LEAK-160                                 CONTINUOUS  SFR                            ALL TIMES    "160"                                      sfr_leakage.obs.csv                                                             
 LEAK-161                                 CONTINUOUS  SFR                            ALL TIMES    "161"                                      sfr_leakage.obs.csv                                                             
 LEAK-162                                 CONTINUOUS  SFR                            ALL TIMES    "162"                                      sfr_leakage.obs.csv                                                             
 LEAK-163                                 CONTINUOUS  SFR                            ALL TIMES    "163"                                      sfr_leakage.obs.csv                                                             
 LEAK-164                                 CONTINUOUS  SFR                            ALL TIMES    "164"                                      sfr_leakage.obs.csv                                                             
 LEAK-165                                 CONTINUOUS  SFR                            ALL TIMES    "165"                                      sfr_leakage.obs.csv                                                             
 LEAK-166                                 CONTINUOUS  SFR                            ALL TIMES    "166"                                      sfr_leakage.obs.csv                                                             
 LEAK-167                                 CONTINUOUS  SFR                            ALL TIMES    "167"                                      sfr_leakage.obs.csv                                                             
 LEAK-168                                 CONTINUOUS  SFR                            ALL TIMES    "168"                                      sfr_leakage.obs.csv                                                             
 LEAK-169                                 CONTINUOUS  SFR                            ALL TIMES    "169"                                      sfr_leakage.obs.csv                                                             
 LEAK-170                                 CONTINUOUS  SFR                            ALL TIMES    "170"                                      sfr_leakage.obs.csv                                                             
 LEAK-171                                 CONTINUOUS  SFR                            ALL TIMES    "171"                                      sfr_leakage.obs.csv                                                             
 LEAK-172                                 CONTINUOUS  SFR                            ALL TIMES    "172"                                      sfr_leakage.obs.csv                                                             
 LEAK-173                                 CONTINUOUS  SFR                            ALL TIMES    "173"                                      sfr_leakage.obs.csv                                                             
 LEAK-174                                 CONTINUOUS  SFR                            ALL TIMES    "174"                                      sfr_leakage.obs.csv                                                             
 LEAK-175                                 CONTINUOUS  SFR                            ALL TIMES    "175"                                      sfr_leakage.obs.csv                                                             
 LEAK-176                                 CONTINUOUS  SFR                            ALL TIMES    "176"                                      sfr_leakage.obs.csv                                                             
 LEAK-177                                 CONTINUOUS  SFR                            ALL TIMES    "177"                                      sfr_leakage.obs.csv                                                             
 LEAK-178                                 CONTINUOUS  SFR                            ALL TIMES    "178"                                      sfr_leakage.obs.csv                                                             
 LEAK-179                                 CONTINUOUS  SFR                            ALL TIMES    "179"                                      sfr_leakage.obs.csv                                                             
 LEAK-180                                 CONTINUOUS  SFR                            ALL TIMES    "180"                                      sfr_leakage.obs.csv                                                             
 LEAK-181                                 CONTINUOUS  SFR                            ALL TIMES    "181"                                      sfr_leakage.obs.csv                                                             
 LEAK-182                                 CONTINUOUS  SFR                            ALL TIMES    "182"                                      sfr_leakage.obs.csv                                                             
 LEAK-183                                 CONTINUOUS  SFR                            ALL TIMES    "183"                                      sfr_leakage.obs.csv                                                             
 LEAK-184                                 CONTINUOUS  SFR                            ALL TIMES    "184"                                      sfr_leakage.obs.csv                                                             
 LEAK-185                                 CONTINUOUS  SFR                            ALL TIMES    "185"                                      sfr_leakage.obs.csv                                                             
 LEAK-186                                 CONTINUOUS  SFR                            ALL TIMES    "186"                                      sfr_leakage.obs.csv                                                             
 LEAK-187                                 CONTINUOUS  SFR                            ALL TIMES    "187"                                      sfr_leakage.obs.csv                                                             
 LEAK-188                                 CONTINUOUS  SFR                            ALL TIMES    "188"                                      sfr_leakage.obs.csv                                                             
 LEAK-189                                 CONTINUOUS  SFR                            ALL TIMES    "189"                                      sfr_leakage.obs.csv                                                             
 LEAK-190                                 CONTINUOUS  SFR                            ALL TIMES    "190"                                      sfr_leakage.obs.csv                                                             
 LEAK-191                                 CONTINUOUS  SFR                            ALL TIMES    "191"                                      sfr_leakage.obs.csv                                                             
 LEAK-192                                 CONTINUOUS  SFR                            ALL TIMES    "192"                                      sfr_leakage.obs.csv                                                             
 LEAK-193                                 CONTINUOUS  SFR                            ALL TIMES    "193"                                      sfr_leakage.obs.csv                                                             
 LEAK-194                                 CONTINUOUS  SFR                            ALL TIMES    "194"                                      sfr_leakage.obs.csv                                                             
 LEAK-195                                 CONTINUOUS  SFR                            ALL TIMES    "195"                                      sfr_leakage.obs.csv                                                             
 LEAK-196                                 CONTINUOUS  SFR                            ALL TIMES    "196"                                      sfr_leakage.obs.csv                                                             
 LEAK-197                                 CONTINUOUS  SFR                            ALL TIMES    "197"                                      sfr_leakage.obs.csv                                                             
 LEAK-198                                 CONTINUOUS  SFR                            ALL TIMES    "198"                                      sfr_leakage.obs.csv                                                             
 LEAK-199                                 CONTINUOUS  SFR                            ALL TIMES    "199"                                      sfr_leakage.obs.csv                                                             
 LEAK-200                                 CONTINUOUS  SFR                            ALL TIMES    "200"                                      sfr_leakage.obs.csv                                                             
 LEAK-201                                 CONTINUOUS  SFR                            ALL TIMES    "201"                                      sfr_leakage.obs.csv                                                             
 LEAK-202                                 CONTINUOUS  SFR                            ALL TIMES    "202"                                      sfr_leakage.obs.csv                                                             
 LEAK-203                                 CONTINUOUS  SFR                            ALL TIMES    "203"                                      sfr_leakage.obs.csv                                                             
 LEAK-204                                 CONTINUOUS  SFR                            ALL TIMES    "204"                                      sfr_leakage.obs.csv                                                             
 LEAK-205                                 CONTINUOUS  SFR                            ALL TIMES    "205"                                      sfr_leakage.obs.csv                                                             
 LEAK-206                                 CONTINUOUS  SFR                            ALL TIMES    "206"                                      sfr_leakage.obs.csv                                                             
 LEAK-207                                 CONTINUOUS  SFR                            ALL TIMES    "207"                                      sfr_leakage.obs.csv                                                             
 LEAK-208                                 CONTINUOUS  SFR                            ALL TIMES    "208"                                      sfr_leakage.obs.csv                                                             
 LEAK-209                                 CONTINUOUS  SFR                            ALL TIMES    "209"                                      sfr_leakage.obs.csv                                                             
 LEAK-210                                 CONTINUOUS  SFR                            ALL TIMES    "210"                                      sfr_leakage.obs.csv                                                             
 LEAK-211                                 CONTINUOUS  SFR                            ALL TIMES    "211"                                      sfr_leakage.obs.csv                                                             
 LEAK-212                                 CONTINUOUS  SFR                            ALL TIMES    "212"                                      sfr_leakage.obs.csv                                                             
 LEAK-213                                 CONTINUOUS  SFR                            ALL TIMES    "213"                                      sfr_leakage.obs.csv                                                             
 LEAK-214                                 CONTINUOUS  SFR                            ALL TIMES    "214"                                      sfr_leakage.obs.csv                                                             
 LEAK-215                                 CONTINUOUS  SFR                            ALL TIMES    "215"                                      sfr_leakage.obs.csv                                                             
 LEAK-216                                 CONTINUOUS  SFR                            ALL TIMES    "216"                                      sfr_leakage.obs.csv                                                             
 LEAK-217                                 CONTINUOUS  SFR                            ALL TIMES    "217"                                      sfr_leakage.obs.csv                                                             
 LEAK-218                                 CONTINUOUS  SFR                            ALL TIMES    "218"                                      sfr_leakage.obs.csv                                                             
 LEAK-219                                 CONTINUOUS  SFR                            ALL TIMES    "219"                                      sfr_leakage.obs.csv                                                             
 LEAK-220                                 CONTINUOUS  SFR                            ALL TIMES    "220"                                      sfr_leakage.obs.csv                                                             
 LEAK-221                                 CONTINUOUS  SFR                            ALL TIMES    "221"                                      sfr_leakage.obs.csv                                                             
 LEAK-222                                 CONTINUOUS  SFR                            ALL TIMES    "222"                                      sfr_leakage.obs.csv                                                             
 LEAK-223                                 CONTINUOUS  SFR                            ALL TIMES    "223"                                      sfr_leakage.obs.csv                                                             
 LEAK-224                                 CONTINUOUS  SFR                            ALL TIMES    "224"                                      sfr_leakage.obs.csv                                                             
 LEAK-225                                 CONTINUOUS  SFR                            ALL TIMES    "225"                                      sfr_leakage.obs.csv                                                             
 LEAK-226                                 CONTINUOUS  SFR                            ALL TIMES    "226"                                      sfr_leakage.obs.csv                                                             
 LEAK-227                                 CONTINUOUS  SFR                            ALL TIMES    "227"                                      sfr_leakage.obs.csv                                                             
 LEAK-228                                 CONTINUOUS  SFR                            ALL TIMES    "228"                                      sfr_leakage.obs.csv                                                             
 LEAK-229                                 CONTINUOUS  SFR                            ALL TIMES    "229"                                      sfr_leakage.obs.csv                                                             
 LEAK-230                                 CONTINUOUS  SFR                            ALL TIMES    "230"                                      sfr_leakage.obs.csv                                                             
 LEAK-231                                 CONTINUOUS  SFR                            ALL TIMES    "231"                                      sfr_leakage.obs.csv                                                             
 LEAK-232                                 CONTINUOUS  SFR                            ALL TIMES    "232"                                      sfr_leakage.obs.csv                                                             
 LEAK-233                                 CONTINUOUS  SFR                            ALL TIMES    "233"                                      sfr_leakage.obs.csv                                                             
 LEAK-234                                 CONTINUOUS  SFR                            ALL TIMES    "234"                                      sfr_leakage.obs.csv                                                             
 LEAK-235                                 CONTINUOUS  SFR                            ALL TIMES    "235"                                      sfr_leakage.obs.csv                                                             
 LEAK-236                                 CONTINUOUS  SFR                            ALL TIMES    "236"                                      sfr_leakage.obs.csv                                                             
 LEAK-237                                 CONTINUOUS  SFR                            ALL TIMES    "237"                                      sfr_leakage.obs.csv                                                             
 LEAK-238                                 CONTINUOUS  SFR                            ALL TIMES    "238"                                      sfr_leakage.obs.csv                                                             
 LEAK-239                                 CONTINUOUS  SFR                            ALL TIMES    "239"                                      sfr_leakage.obs.csv                                                             
 LEAK-240                                 CONTINUOUS  SFR                            ALL TIMES    "240"                                      sfr_leakage.obs.csv                                                             
 LEAK-241                                 CONTINUOUS  SFR                            ALL TIMES    "241"                                      sfr_leakage.obs.csv                                                             
 LEAK-242                                 CONTINUOUS  SFR                            ALL TIMES    "242"                                      sfr_leakage.obs.csv                                                             
 LEAK-243                                 CONTINUOUS  SFR                            ALL TIMES    "243"                                      sfr_leakage.obs.csv                                                             
 LEAK-244                                 CONTINUOUS  SFR                            ALL TIMES    "244"                                      sfr_leakage.obs.csv                                                             
 LEAK-245                                 CONTINUOUS  SFR                            ALL TIMES    "245"                                      sfr_leakage.obs.csv                                                             
 LEAK-246                                 CONTINUOUS  SFR                            ALL TIMES    "246"                                      sfr_leakage.obs.csv                                                             
 LEAK-247                                 CONTINUOUS  SFR                            ALL TIMES    "247"                                      sfr_leakage.obs.csv                                                             
 LEAK-248                                 CONTINUOUS  SFR                            ALL TIMES    "248"                                      sfr_leakage.obs.csv                                                             
 LEAK-249                                 CONTINUOUS  SFR                            ALL TIMES    "249"                                      sfr_leakage.obs.csv                                                             
 LEAK-250                                 CONTINUOUS  SFR                            ALL TIMES    "250"                                      sfr_leakage.obs.csv                                                             
 LEAK-251                                 CONTINUOUS  SFR                            ALL TIMES    "251"                                      sfr_leakage.obs.csv                                                             
 LEAK-252                                 CONTINUOUS  SFR                            ALL TIMES    "252"                                      sfr_leakage.obs.csv                                                             
 LEAK-253                                 CONTINUOUS  SFR                            ALL TIMES    "253"                                      sfr_leakage.obs.csv                                                             
 LEAK-254                                 CONTINUOUS  SFR                            ALL TIMES    "254"                                      sfr_leakage.obs.csv                                                             
 LEAK-255                                 CONTINUOUS  SFR                            ALL TIMES    "255"                                      sfr_leakage.obs.csv                                                             
 LEAK-256                                 CONTINUOUS  SFR                            ALL TIMES    "256"                                      sfr_leakage.obs.csv                                                             
 LEAK-257                                 CONTINUOUS  SFR                            ALL TIMES    "257"                                      sfr_leakage.obs.csv                                                             
 LEAK-258                                 CONTINUOUS  SFR                            ALL TIMES    "258"                                      sfr_leakage.obs.csv                                                             
 LEAK-259                                 CONTINUOUS  SFR                            ALL TIMES    "259"                                      sfr_leakage.obs.csv                                                             
 LEAK-260                                 CONTINUOUS  SFR                            ALL TIMES    "260"                                      sfr_leakage.obs.csv                                                             
 LEAK-261                                 CONTINUOUS  SFR                            ALL TIMES    "261"                                      sfr_leakage.obs.csv                                                             
 LEAK-262                                 CONTINUOUS  SFR                            ALL TIMES    "262"                                      sfr_leakage.obs.csv                                                             
 LEAK-263                                 CONTINUOUS  SFR                            ALL TIMES    "263"                                      sfr_leakage.obs.csv                                                             
 LEAK-264                                 CONTINUOUS  SFR                            ALL TIMES    "264"                                      sfr_leakage.obs.csv                                                             
 LEAK-265                                 CONTINUOUS  SFR                            ALL TIMES    "265"                                      sfr_leakage.obs.csv                                                             
 LEAK-266                                 CONTINUOUS  SFR                            ALL TIMES    "266"                                      sfr_leakage.obs.csv                                                             
 ----------------------------------------------------------------------------------------------------------------------------------------------------------------------------------------------------------------------------



 SFR PACKAGE (SFR) STATIC REACH DATA
 ---------------------------------------------------------------------------------------------------------------------------------------
                                                                                                                              UPSTREAM  
   NUMBER   CELLID                  LENGTH       WIDTH        SLOPE         TOP       THICKNESS        HK       ROUGHNESS     FRACTION  
 ---------------------------------------------------------------------------------------------------------------------------------------
     1      (1,2565)              5.8800       2.0000       1.00000E-03  143.61       1.0000       86.400       3.00000E-02  1.0000     
     2      (1,2563)              1.8500       2.0000       1.00000E-03  143.50       1.0000       86.400       3.00000E-02  1.0000     
     3      (1,2561)              3.5600       2.0000       1.00000E-03  143.45       1.0000       86.400       3.00000E-02  1.0000     
     4      (1,2560)              5.5300       2.0000       1.00000E-03  143.45       1.0000       86.400       3.00000E-02  1.0000     
     5      (1,2557)              2.8400       2.0000       1.00000E-03  143.45       1.0000       86.400       3.00000E-02  1.0000     
     6      (1,2485)              2.7700       2.0000       1.00000E-03  143.45       1.0000       86.400       3.00000E-02  1.0000     
     7      (1,2484)              6.3300       2.0000       1.00000E-03  143.42       1.0000       86.400       3.00000E-02  1.0000     
     8      (1,2481)              0.35000      2.0000       1.00000E-03  143.33       1.0000       86.400       3.00000E-02  1.0000     
     9      (1,2479)              4.9900       2.0000       1.00000E-03  143.33       1.0000       86.400       3.00000E-02  1.0000     
     10     (1,2478)              5.6600       2.0000       1.00000E-03  143.33       1.0000       86.400       3.00000E-02  1.0000     
     11     (1,2399)              2.1500       2.0000       1.00000E-03  143.33       1.0000       86.400       3.00000E-02  1.0000     
     12     (1,2396)              3.3800       2.0000       1.00000E-03  143.33       1.0000       86.400       3.00000E-02  1.0000     
     13     (1,2394)              5.7800       2.0000       1.00000E-03  143.28       1.0000       86.400       3.00000E-02  1.0000     
     14     (1,2393)              0.57000      2.0000       1.00000E-03  143.25       1.0000       86.400       3.00000E-02  1.0000     
     15     (1,2304)              5.3100       2.0000       1.00000E-03  143.14       1.0000       86.400       3.00000E-02  1.0000     
     16     (1,2301)              5.2700       2.0000       1.00000E-03  143.14       1.0000       86.400       3.00000E-02  1.0000     
     17     (1,2300)              0.38000      2.0000       1.00000E-03  143.14       1.0000       86.400       3.00000E-02  1.0000     
     18     (1,2389)              4.7000       2.0000       1.00000E-03  143.14       1.0000       86.400       3.00000E-02  1.0000     
     19     (1,2386)              5.0400       2.0000       1.00000E-03  143.07       1.0000       86.400       3.00000E-02  1.0000     
     20     (1,2385)              1.6100       2.0000       1.00000E-03  143.07       1.0000       86.400       3.00000E-02  1.0000     
     21     (1,2296)              3.4900       2.0000       1.00000E-03  143.07       1.0000       86.400       3.00000E-02  1.0000     
     22     (1,2293)              5.1700       2.0000       1.00000E-03  143.07       1.0000       86.400       3.00000E-02  1.0000     
     23     (1,2292)              5.1200       2.0000       1.00000E-03  143.07       1.0000       86.400       3.00000E-02  1.0000     
     24     (1,2289)              5.2700       2.0000       1.00000E-03  143.07       1.0000       86.400       3.00000E-02  1.0000     
     25     (1,2288)              0.89000      2.0000       1.00000E-03  143.07       1.0000       86.400       3.00000E-02  1.0000     
     26     (1,2286)              4.5200       2.0000       1.00000E-03  143.03       1.0000       86.400       3.00000E-02  1.0000     
     27     (1,2283)              5.1500       2.0000       1.00000E-03  143.03       1.0000       86.400       3.00000E-02  1.0000     
     28     (1,2282)              5.0800       2.0000       1.00000E-03  143.03       1.0000       86.400       3.00000E-02  1.0000     
     29     (1,2279)              5.1200       2.0000       1.00000E-03  143.03       1.0000       86.400       3.00000E-02  1.0000     
     30     (1,2278)              5.1900       2.0000       1.00000E-03  143.03       1.0000       86.400       3.00000E-02  1.0000     
     31     (1,2275)              1.0000       2.0000       1.00000E-03  143.03       1.0000       86.400       3.00000E-02  1.0000     
     32     (1,2277)              4.2300       2.0000       1.00000E-03  143.03       1.0000       86.400       3.00000E-02  1.0000     
     33     (1,2276)              5.2600       2.0000       1.00000E-03  143.03       1.0000       86.400       3.00000E-02  1.0000     
     34     (1,2273)              5.1600       2.0000       1.00000E-03  143.03       1.0000       86.400       3.00000E-02  1.0000     
     35     (1,2272)              2.6300       2.0000       1.00000E-03  143.03       1.0000       86.400       3.00000E-02  1.0000     
     36     (1,2376)              2.5600       2.0000       1.00000E-03  143.03       1.0000       86.400       3.00000E-02  1.0000     
     37     (1,2373)              5.1000       2.0000       1.00000E-03  143.03       1.0000       86.400       3.00000E-02  1.0000     
     38     (1,2372)              5.1000       2.0000       1.00000E-03  143.03       1.0000       86.400       3.00000E-02  1.0000     
     39     (1,2369)              5.2200       2.0000       1.00000E-03  143.01       1.0000       86.400       3.00000E-02  1.0000     
     40     (1,2368)              4.6700       2.0000       1.00000E-03  142.55       1.0000       86.400       3.00000E-02  1.0000     
     41     (1,2370)              0.48000      2.0000       1.00000E-03  142.55       1.0000       86.400       3.00000E-02  1.0000     
     42     (1,2367)              5.2200       2.0000       1.00000E-03  142.05       1.0000       86.400       3.00000E-02  1.0000     
     43     (1,2366)              5.2000       2.0000       1.00000E-03  141.75       1.0000       86.400       3.00000E-02  1.0000     
     44     (1,2363)              5.0700       2.0000       1.00000E-03  141.22       1.0000       86.400       3.00000E-02  1.0000     
     45     (1,2362)              5.3600       2.0000       1.00000E-03  140.98       1.0000       86.400       3.00000E-02  1.0000     
     46     (1,2462)              3.00000E-02  2.0000       1.00000E-03  140.62       1.0000       86.400       3.00000E-02  1.0000     
     47     (1,2459)              6.1900       2.0000       1.00000E-03  140.43       1.0000       86.400       3.00000E-02  1.0000     
     48     (1,2458)              2.1000       2.0000       1.00000E-03  140.43       1.0000       86.400       3.00000E-02  1.0000     
     49     (1,2460)              4.1300       2.0000       1.00000E-03  140.05       1.0000       86.400       3.00000E-02  1.0000     
     50     (1,2457)              4.0800       2.0000       1.00000E-03  140.05       1.0000       86.400       3.00000E-02  1.0000     
     51     (1,2538)              2.3900       2.0000       1.00000E-03  139.72       1.0000       86.400       3.00000E-02  1.0000     
     52     (1,2537)              5.6900       2.0000       1.00000E-03  139.72       1.0000       86.400       3.00000E-02  1.0000     
     53     (1,2539)              1.1000       2.0000       1.00000E-03  139.56       1.0000       86.400       3.00000E-02  1.0000     
     54     (1,2536)              5.1300       2.0000       1.00000E-03  139.54       1.0000       86.400       3.00000E-02  1.0000     
     55     (1,2614)              3.6800       2.0000       1.00000E-03  139.39       1.0000       86.400       3.00000E-02  1.0000     
     56     (1,2613)              2.5200       2.0000       1.00000E-03  139.36       1.0000       86.400       3.00000E-02  1.0000     
     57     (1,2615)              5.5300       2.0000       1.00000E-03  139.20       1.0000       86.400       3.00000E-02  1.0000     
     58     (1,2682)              5.1200       2.0000       1.00000E-03  139.02       1.0000       86.400       3.00000E-02  1.0000     
     59     (1,2684)              3.1200       2.0000       1.00000E-03  138.96       1.0000       86.400       3.00000E-02  1.0000     
     60     (1,2681)              2.5900       2.0000       1.00000E-03  138.89       1.0000       86.400       3.00000E-02  1.0000     
     61     (1,2762)              4.9600       2.0000       1.00000E-03  138.89       1.0000       86.400       3.00000E-02  1.0000     
     62     (1,2761)              2.1100       2.0000       1.00000E-03  138.84       1.0000       86.400       3.00000E-02  1.0000     
     63     (1,2763)              3.6300       2.0000       1.00000E-03  138.84       1.0000       86.400       3.00000E-02  1.0000     
     64     (1,2760)              5.6600       2.0000       1.00000E-03  138.65       1.0000       86.400       3.00000E-02  1.0000     
     65     (1,2759)              5.1100       2.0000       1.00000E-03  138.58       1.0000       86.400       3.00000E-02  1.0000     
     66     (1,2756)              5.2300       2.0000       1.00000E-03  138.49       1.0000       86.400       3.00000E-02  1.0000     
     67     (1,2755)              5.1900       2.0000       1.00000E-03  138.33       1.0000       86.400       3.00000E-02  1.0000     
     68     (1,2752)              5.2700       2.0000       1.00000E-03  138.33       1.0000       86.400       3.00000E-02  1.0000     
     69     (1,2751)              5.3600       2.0000       1.00000E-03  138.33       1.0000       86.400       3.00000E-02  1.0000     
     70     (1,2748)              0.22000      2.0000       1.00000E-03  138.33       1.0000       86.400       3.00000E-02  1.0000     
     71     (1,2831)              5.3600       2.0000       1.00000E-03  138.33       1.0000       86.400       3.00000E-02  1.0000     
     72     (1,2830)              5.3700       2.0000       1.00000E-03  138.33       1.0000       86.400       3.00000E-02  1.0000     
     73     (1,2827)              1.9500       2.0000       1.00000E-03  138.33       1.0000       86.400       3.00000E-02  1.0000     
     74     (1,2829)              3.3900       2.0000       1.00000E-03  138.33       1.0000       86.400       3.00000E-02  1.0000     
     75     (1,2828)              5.2700       2.0000       1.00000E-03  138.33       1.0000       86.400       3.00000E-02  1.0000     
     76     (1,2825)              5.2700       2.0000       1.00000E-03  138.33       1.0000       86.400       3.00000E-02  1.0000     
     77     (1,2824)              1.8600       2.0000       1.00000E-03  138.33       1.0000       86.400       3.00000E-02  1.0000     
     78     (1,2895)              3.4100       2.0000       1.00000E-03  138.33       1.0000       86.400       3.00000E-02  1.0000     
     79     (1,2892)              5.2100       2.0000       1.00000E-03  138.33       1.0000       86.400       3.00000E-02  1.0000     
     80     (1,2891)              5.3700       2.0000       1.00000E-03  138.33       1.0000       86.400       3.00000E-02  1.0000     
     81     (1,2888)              5.0500       2.0000       1.00000E-03  138.33       1.0000       86.400       3.00000E-02  1.0000     
     82     (1,2887)              6.7400       2.0000       1.00000E-03  138.33       1.0000       86.400       3.00000E-02  1.0000     
     83     (1,2884)              1.1000       2.0000       1.00000E-03  138.33       1.0000       86.400       3.00000E-02  1.0000     
     84     (1,2819)              5.9700       2.0000       1.00000E-03  138.33       1.0000       86.400       3.00000E-02  1.0000     
     85     (1,2818)              1.1000       2.0000       1.00000E-03  138.24       1.0000       86.400       3.00000E-02  1.0000     
     86     (1,2816)              5.9700       2.0000       1.00000E-03  138.24       1.0000       86.400       3.00000E-02  1.0000     
     87     (1,2813)              1.1000       2.0000       1.00000E-03  137.98       1.0000       86.400       3.00000E-02  1.0000     
     88     (1,2739)              5.9700       2.0000       1.00000E-03  137.98       1.0000       86.400       3.00000E-02  1.0000     
     89     (1,2738)              1.1000       2.0000       1.00000E-03  137.56       1.0000       86.400       3.00000E-02  1.0000     
     90     (1,2736)              5.9700       2.0000       1.00000E-03  137.56       1.0000       86.400       3.00000E-02  1.0000     
     91     (1,2733)              1.1000       2.0000       1.00000E-03  137.21       1.0000       86.400       3.00000E-02  1.0000     
     92     (1,2667)              5.9700       2.0000       1.00000E-03  137.21       1.0000       86.400       3.00000E-02  1.0000     
     93     (1,2666)              1.1000       2.0000       1.00000E-03  137.20       1.0000       86.400       3.00000E-02  1.0000     
     94     (1,2664)              6.3600       2.0000       1.00000E-03  137.11       1.0000       86.400       3.00000E-02  1.0000     
     95     (1,2600)              2.4400       2.0000       1.00000E-03  136.90       1.0000       86.400       3.00000E-02  1.0000     
     96     (1,2597)              3.7300       2.0000       1.00000E-03  136.63       1.0000       86.400       3.00000E-02  1.0000     
     97     (1,2595)              5.6800       2.0000       1.00000E-03  136.63       1.0000       86.400       3.00000E-02  1.0000     
     98     (1,2520)              1.7200       2.0000       1.00000E-03  136.63       1.0000       86.400       3.00000E-02  1.0000     
     99     (1,2519)              4.6500       2.0000       1.00000E-03  136.63       1.0000       86.400       3.00000E-02  1.0000     
    100     (1,2517)              5.6900       2.0000       1.00000E-03  136.63       1.0000       86.400       3.00000E-02  1.0000     
    101     (1,2436)              6.1000       2.0000       1.00000E-03  136.63       1.0000       86.400       3.00000E-02  1.0000     
    102     (1,2434)              3.6600       2.0000       1.00000E-03  136.63       1.0000       86.400       3.00000E-02  1.0000     
    103     (1,2435)              7.3100       2.0000       1.00000E-03  136.63       1.0000       86.400       3.00000E-02  1.0000     
    104     (1,2438)              1.9500       2.0000       1.00000E-03  136.63       1.0000       86.400       3.00000E-02  1.0000     
    105     (1,2344)              5.2700       2.0000       1.00000E-03  136.63       1.0000       86.400       3.00000E-02  1.0000     
    106     (1,2342)              3.5600       2.0000       1.00000E-03  136.63       1.0000       86.400       3.00000E-02  1.0000     
    107     (1,2343)              2.6500       2.0000       1.00000E-03  136.63       1.0000       86.400       3.00000E-02  1.0000     
    108     (1,2251)              5.8800       2.0000       1.00000E-03  136.60       1.0000       86.400       3.00000E-02  1.0000     
    109     (1,2249)              5.0000       2.0000       1.00000E-03  136.49       1.0000       86.400       3.00000E-02  1.0000     
    110     (1,2183)              5.4100       2.0000       1.00000E-03  136.36       1.0000       86.400       3.00000E-02  1.0000     
    111     (1,2181)              5.0000       2.0000       1.00000E-03  136.30       1.0000       86.400       3.00000E-02  1.0000     
    112     (1,2114)              5.0500       2.0000       1.00000E-03  136.30       1.0000       86.400       3.00000E-02  1.0000     
    113     (1,2112)              5.0200       2.0000       1.00000E-03  136.30       1.0000       86.400       3.00000E-02  1.0000     
    114     (1,2044)              2.4900       2.0000       1.00000E-03  136.30       1.0000       86.400       3.00000E-02  1.0000     
    115     (1,2043)              3.1600       2.0000       1.00000E-03  136.30       1.0000       86.400       3.00000E-02  1.0000     
    116     (1,2041)              5.9100       2.0000       1.00000E-03  136.28       1.0000       86.400       3.00000E-02  1.0000     
    117     (1,1972)              0.86000      2.0000       1.00000E-03  136.28       1.0000       86.400       3.00000E-02  1.0000     
    118     (1,1969)              5.4600       2.0000       1.00000E-03  136.05       1.0000       86.400       3.00000E-02  1.0000     
    119     (1,1967)              2.9400       2.0000       1.00000E-03  136.05       1.0000       86.400       3.00000E-02  1.0000     
    120     (1,1966)              3.2700       2.0000       1.00000E-03  135.98       1.0000       86.400       3.00000E-02  1.0000     
    121     (1,1893)              4.9500       2.0000       1.00000E-03  135.90       1.0000       86.400       3.00000E-02  1.0000     
    122     (1,1894)              1.1600       2.0000       1.00000E-03  135.90       1.0000       86.400       3.00000E-02  1.0000     
    123     (1,1892)              5.1400       2.0000       1.00000E-03  135.90       1.0000       86.400       3.00000E-02  1.0000     
    124     (1,1895)              5.1400       2.0000       1.00000E-03  135.89       1.0000       86.400       3.00000E-02  1.0000     
    125     (1,1896)              4.2800       2.0000       1.00000E-03  135.89       1.0000       86.400       3.00000E-02  1.0000     
    126     (1,1819)              1.1900       2.0000       1.00000E-03  135.89       1.0000       86.400       3.00000E-02  1.0000     
    127     (1,1822)              5.3500       2.0000       1.00000E-03  135.88       1.0000       86.400       3.00000E-02  1.0000     
    128     (1,1820)              5.2500       2.0000       1.00000E-03  135.64       1.0000       86.400       3.00000E-02  1.0000     
    129     (1,1745)              6.6700       2.0000       1.00000E-03  135.64       1.0000       86.400       3.00000E-02  1.0000     
    130     (1,1742)              5.1400       2.0000       1.00000E-03  135.56       1.0000       86.400       3.00000E-02  1.0000     
    131     (1,1741)              5.3600       2.0000       1.00000E-03  135.56       1.0000       86.400       3.00000E-02  1.0000     
    132     (1,1738)              5.2700       2.0000       1.00000E-03  135.47       1.0000       86.400       3.00000E-02  1.0000     
    133     (1,1737)              2.5100       2.0000       1.00000E-03  135.47       1.0000       86.400       3.00000E-02  1.0000     
    134     (1,1735)              4.9800       2.0000       1.00000E-03  135.44       1.0000       86.400       3.00000E-02  1.0000     
    135     (1,1732)              1.3300       2.0000       1.00000E-03  135.44       1.0000       86.400       3.00000E-02  1.0000     
    136     (1,1653)              5.7500       2.0000       1.00000E-03  135.38       1.0000       86.400       3.00000E-02  1.0000     
    137     (1,1651)              6.1000       2.0000       1.00000E-03  135.36       1.0000       86.400       3.00000E-02  1.0000     
    138     (1,1654)              5.0400       2.0000       1.00000E-03  135.36       1.0000       86.400       3.00000E-02  1.0000     
    139     (1,1655)              5.6400       2.0000       1.00000E-03  135.32       1.0000       86.400       3.00000E-02  1.0000     
    140     (1,1658)              1.5800       2.0000       1.00000E-03  135.32       1.0000       86.400       3.00000E-02  1.0000     
    141     (1,1548)              5.2300       2.0000       1.00000E-03  135.32       1.0000       86.400       3.00000E-02  1.0000     
    142     (1,1546)              3.3100       2.0000       1.00000E-03  135.32       1.0000       86.400       3.00000E-02  1.0000     
    143     (1,1543)              4.3200       2.0000       1.00000E-03  135.32       1.0000       86.400       3.00000E-02  1.0000     
    144     (1,1453)              1.9800       2.0000       1.00000E-03  135.32       1.0000       86.400       3.00000E-02  1.0000     
    145     (1,1452)              5.2900       2.0000       1.00000E-03  135.32       1.0000       86.400       3.00000E-02  1.0000     
    146     (1,1449)              5.2900       2.0000       1.00000E-03  135.32       1.0000       86.400       3.00000E-02  1.0000     
    147     (1,1448)              1.7500       2.0000       1.00000E-03  135.32       1.0000       86.400       3.00000E-02  1.0000     
    148     (1,1538)              3.8700       2.0000       1.00000E-03  135.28       1.0000       86.400       3.00000E-02  1.0000     
    149     (1,1535)              5.6100       2.0000       1.00000E-03  135.28       1.0000       86.400       3.00000E-02  1.0000     
    150     (1,1537)              5.5300       2.0000       1.00000E-03  135.26       1.0000       86.400       3.00000E-02  1.0000     
    151     (1,1647)              5.2700       2.0000       1.00000E-03  135.26       1.0000       86.400       3.00000E-02  1.0000     
    152     (1,1649)              5.3900       2.0000       1.00000E-03  135.26       1.0000       86.400       3.00000E-02  1.0000     
    153     (1,1648)              5.1900       2.0000       1.00000E-03  135.26       1.0000       86.400       3.00000E-02  1.0000     
    154     (1,1645)              5.4400       2.0000       1.00000E-03  135.21       1.0000       86.400       3.00000E-02  1.0000     
    155     (1,1644)              3.7500       2.0000       1.00000E-03  135.13       1.0000       86.400       3.00000E-02  1.0000     
    156     (1,1642)              2.4400       2.0000       1.00000E-03  135.06       1.0000       86.400       3.00000E-02  1.0000     
    157     (1,1639)              5.4000       2.0000       1.00000E-03  135.06       1.0000       86.400       3.00000E-02  1.0000     
    158     (1,1638)              2.3200       2.0000       1.00000E-03  135.06       1.0000       86.400       3.00000E-02  1.0000     
    159     (1,1640)              3.4000       2.0000       1.00000E-03  135.06       1.0000       86.400       3.00000E-02  1.0000     
    160     (1,1637)              5.2700       2.0000       1.00000E-03  135.06       1.0000       86.400       3.00000E-02  1.0000     
    161     (1,1636)              5.0500       2.0000       1.00000E-03  135.06       1.0000       86.400       3.00000E-02  1.0000     
    162     (1,1633)              5.0100       2.0000       1.00000E-03  135.06       1.0000       86.400       3.00000E-02  1.0000     
    163     (1,1632)              5.0400       2.0000       1.00000E-03  135.05       1.0000       86.400       3.00000E-02  1.0000     
    164     (1,1629)              5.0600       2.0000       1.00000E-03  135.05       1.0000       86.400       3.00000E-02  1.0000     
    165     (1,1628)              5.0100       2.0000       1.00000E-03  135.05       1.0000       86.400       3.00000E-02  1.0000     
    166     (1,1625)              5.0400       2.0000       1.00000E-03  135.00       1.0000       86.400       3.00000E-02  1.0000     
    167     (1,1624)              5.0900       2.0000       1.00000E-03  134.97       1.0000       86.400       3.00000E-02  1.0000     
    168     (1,1621)              5.1000       2.0000       1.00000E-03  134.97       1.0000       86.400       3.00000E-02  1.0000     
    169     (1,1620)              5.2100       2.0000       1.00000E-03  134.97       1.0000       86.400       3.00000E-02  1.0000     
    170     (1,1617)              2.8200       2.0000       1.00000E-03  134.97       1.0000       86.400       3.00000E-02  1.0000     
    171     (1,1615)              2.6700       2.0000       1.00000E-03  134.90       1.0000       86.400       3.00000E-02  1.0000     
    172     (1,1614)              5.4800       2.0000       1.00000E-03  134.90       1.0000       86.400       3.00000E-02  1.0000     
    173     (1,1611)              3.4100       2.0000       1.00000E-03  134.90       1.0000       86.400       3.00000E-02  1.0000     
    174     (1,1525)              2.3500       2.0000       1.00000E-03  134.89       1.0000       86.400       3.00000E-02  1.0000     
    175     (1,1524)              5.5900       2.0000       1.00000E-03  134.77       1.0000       86.400       3.00000E-02  1.0000     
    176     (1,1521)              3.3400       2.0000       1.00000E-03  134.77       1.0000       86.400       3.00000E-02  1.0000     
    177     (1,1519)              2.4800       2.0000       1.00000E-03  134.77       1.0000       86.400       3.00000E-02  1.0000     
    178     (1,1518)              5.2400       2.0000       1.00000E-03  134.77       1.0000       86.400       3.00000E-02  1.0000     
    179     (1,1515)              3.1200       2.0000       1.00000E-03  134.77       1.0000       86.400       3.00000E-02  1.0000     
    180     (1,1431)              5.0000       2.0000       1.00000E-03  134.77       1.0000       86.400       3.00000E-02  1.0000     
    181     (1,1429)              4.4800       2.0000       1.00000E-03  134.77       1.0000       86.400       3.00000E-02  1.0000     
    182     (1,1432)              2.9100       2.0000       1.00000E-03  134.73       1.0000       86.400       3.00000E-02  1.0000     
    183     (1,1353)              5.2500       2.0000       1.00000E-03  134.72       1.0000       86.400       3.00000E-02  1.0000     
    184     (1,1351)              5.1100       2.0000       1.00000E-03  134.72       1.0000       86.400       3.00000E-02  1.0000     
    185     (1,1274)              5.2200       2.0000       1.00000E-03  134.72       1.0000       86.400       3.00000E-02  1.0000     
    186     (1,1272)              5.2100       2.0000       1.00000E-03  134.71       1.0000       86.400       3.00000E-02  1.0000     
    187     (1,1194)              5.3700       2.0000       1.00000E-03  134.38       1.0000       86.400       3.00000E-02  1.0000     
    188     (1,1192)              4.9400       2.0000       1.00000E-03  134.27       1.0000       86.400       3.00000E-02  1.0000     
    189     (1,1189)              0.71000      2.0000       1.00000E-03  134.27       1.0000       86.400       3.00000E-02  1.0000     
    190     (1,1111)              5.7400       2.0000       1.00000E-03  134.17       1.0000       86.400       3.00000E-02  1.0000     
    191     (1,1109)              3.6400       2.0000       1.00000E-03  134.17       1.0000       86.400       3.00000E-02  1.0000     
    192     (1,1108)              2.0900       2.0000       1.00000E-03  134.17       1.0000       86.400       3.00000E-02  1.0000     
    193     (1,1030)              5.6700       2.0000       1.00000E-03  134.17       1.0000       86.400       3.00000E-02  1.0000     
    194     (1,1028)              5.1500       2.0000       1.00000E-03  134.17       1.0000       86.400       3.00000E-02  1.0000     
    195     (1,950)               1.0800       2.0000       1.00000E-03  134.17       1.0000       86.400       3.00000E-02  1.0000     
    196     (1,947)               4.7100       2.0000       1.00000E-03  134.07       1.0000       86.400       3.00000E-02  1.0000     
    197     (1,945)               3.1600       2.0000       1.00000E-03  134.07       1.0000       86.400       3.00000E-02  1.0000     
    198     (1,944)               4.9100       2.0000       1.00000E-03  134.07       1.0000       86.400       3.00000E-02  1.0000     
    199     (1,866)               2.0500       2.0000       1.00000E-03  134.07       1.0000       86.400       3.00000E-02  1.0000     
    200     (1,863)               4.6500       2.0000       1.00000E-03  134.07       1.0000       86.400       3.00000E-02  1.0000     
    201     (1,861)               3.5200       2.0000       1.00000E-03  134.07       1.0000       86.400       3.00000E-02  1.0000     
    202     (1,860)               3.0200       2.0000       1.00000E-03  134.07       1.0000       86.400       3.00000E-02  1.0000     
    203     (1,782)               4.7600       2.0000       1.00000E-03  134.07       1.0000       86.400       3.00000E-02  1.0000     
    204     (1,779)               1.4600       2.0000       1.00000E-03  134.06       1.0000       86.400       3.00000E-02  1.0000     
    205     (1,777)               6.5400       2.0000       1.00000E-03  134.06       1.0000       86.400       3.00000E-02  1.0000     
    206     (1,700)               7.00000E-02  2.0000       1.00000E-03  134.06       1.0000       86.400       3.00000E-02  1.0000     
    207     (1,699)               6.5900       2.0000       1.00000E-03  134.06       1.0000       86.400       3.00000E-02  1.0000     
    208     (1,697)               0.98000      2.0000       1.00000E-03  134.06       1.0000       86.400       3.00000E-02  1.0000     
    209     (1,694)               5.3700       2.0000       1.00000E-03  134.06       1.0000       86.400       3.00000E-02  1.0000     
    210     (1,618)               2.8000       2.0000       1.00000E-03  133.99       1.0000       86.400       3.00000E-02  1.0000     
    211     (1,617)               3.3500       2.0000       1.00000E-03  133.99       1.0000       86.400       3.00000E-02  1.0000     
    212     (1,615)               4.9500       2.0000       1.00000E-03  133.99       1.0000       86.400       3.00000E-02  1.0000     
    213     (1,612)               2.0900       2.0000       1.00000E-03  133.99       1.0000       86.400       3.00000E-02  1.0000     
    214     (1,537)               5.4200       2.0000       1.00000E-03  133.99       1.0000       86.400       3.00000E-02  1.0000     
    215     (1,535)               3.6300       2.0000       1.00000E-03  133.82       1.0000       86.400       3.00000E-02  1.0000     
    216     (1,534)               5.6500       2.0000       1.00000E-03  133.82       1.0000       86.400       3.00000E-02  1.0000     
    217     (1,531)               9.00000E-02  2.0000       1.00000E-03  133.82       1.0000       86.400       3.00000E-02  1.0000     
    218     (1,457)               6.0300       2.0000       1.00000E-03  133.82       1.0000       86.400       3.00000E-02  1.0000     
    219     (1,455)               5.9300       2.0000       1.00000E-03  133.82       1.0000       86.400       3.00000E-02  1.0000     
    220     (1,382)               2.2500       2.0000       1.00000E-03  133.82       1.0000       86.400       3.00000E-02  1.0000     
    221     (1,381)               5.3700       2.0000       1.00000E-03  133.82       1.0000       86.400       3.00000E-02  1.0000     
    222     (1,378)               5.1500       2.0000       1.00000E-03  133.82       1.0000       86.400       3.00000E-02  1.0000     
    223     (1,377)               5.3200       2.0000       1.00000E-03  133.82       1.0000       86.400       3.00000E-02  1.0000     
    224     (1,375)               0.93000      2.0000       1.00000E-03  133.82       1.0000       86.400       3.00000E-02  1.0000     
    225     (1,372)               6.0100       2.0000       1.00000E-03  133.82       1.0000       86.400       3.00000E-02  1.0000     
    226     (1,371)               1.8900       2.0000       1.00000E-03  133.82       1.0000       86.400       3.00000E-02  1.0000     
    227     (1,299)               4.0600       2.0000       1.00000E-03  133.82       1.0000       86.400       3.00000E-02  1.0000     
    228     (1,296)               5.2500       2.0000       1.00000E-03  133.82       1.0000       86.400       3.00000E-02  1.0000     
    229     (1,294)               0.69000      2.0000       1.00000E-03  133.82       1.0000       86.400       3.00000E-02  1.0000     
    230     (1,293)               5.3300       2.0000       1.00000E-03  133.82       1.0000       86.400       3.00000E-02  1.0000     
    231     (1,290)               5.1200       2.0000       1.00000E-03  133.82       1.0000       86.400       3.00000E-02  1.0000     
    232     (1,289)               5.2600       2.0000       1.00000E-03  133.82       1.0000       86.400       3.00000E-02  1.0000     
    233     (1,286)               0.66000      2.0000       1.00000E-03  133.82       1.0000       86.400       3.00000E-02  1.0000     
    234     (1,250)               4.5700       2.0000       1.00000E-03  133.82       1.0000       86.400       3.00000E-02  1.0000     
    235     (1,249)               5.6700       2.0000       1.00000E-03  133.82       1.0000       86.400       3.00000E-02  1.0000     
    236     (1,246)               2.2400       2.0000       1.00000E-03  133.59       1.0000       86.400       3.00000E-02  1.0000     
    237     (1,244)               3.7300       2.0000       1.00000E-03  133.51       1.0000       86.400       3.00000E-02  1.0000     
    238     (1,243)               4.5500       2.0000       1.00000E-03  133.28       1.0000       86.400       3.00000E-02  1.0000     
    239     (1,209)               2.3300       2.0000       1.00000E-03  133.28       1.0000       86.400       3.00000E-02  1.0000     
    240     (1,206)               4.7400       2.0000       1.00000E-03  133.28       1.0000       86.400       3.00000E-02  1.0000     
    241     (1,204)               2.3300       2.0000       1.00000E-03  133.28       1.0000       86.400       3.00000E-02  1.0000     
    242     (1,203)               4.7400       2.0000       1.00000E-03  133.28       1.0000       86.400       3.00000E-02  1.0000     
    243     (1,171)               2.3100       2.0000       1.00000E-03  133.28       1.0000       86.400       3.00000E-02  1.0000     
    244     (1,168)               5.8900       2.0000       1.00000E-03  133.28       1.0000       86.400       3.00000E-02  1.0000     
    245     (1,166)               0.33000      2.0000       1.00000E-03  133.28       1.0000       86.400       3.00000E-02  1.0000     
    246     (1,165)               6.7400       2.0000       1.00000E-03  133.28       1.0000       86.400       3.00000E-02  1.0000     
    247     (1,135)               0.33000      2.0000       1.00000E-03  133.28       1.0000       86.400       3.00000E-02  1.0000     
    248     (1,132)               6.7400       2.0000       1.00000E-03  133.28       1.0000       86.400       3.00000E-02  1.0000     
    249     (1,130)               0.33000      2.0000       1.00000E-03  133.28       1.0000       86.400       3.00000E-02  1.0000     
    250     (1,129)               6.7400       2.0000       1.00000E-03  133.28       1.0000       86.400       3.00000E-02  1.0000     
    251     (1,101)               0.33000      2.0000       1.00000E-03  133.28       1.0000       86.400       3.00000E-02  1.0000     
    252     (1,98)                6.7400       2.0000       1.00000E-03  133.28       1.0000       86.400       3.00000E-02  1.0000     
    253     (1,96)                0.33000      2.0000       1.00000E-03  133.28       1.0000       86.400       3.00000E-02  1.0000     
    254     (1,95)                6.7400       2.0000       1.00000E-03  133.28       1.0000       86.400       3.00000E-02  1.0000     
    255     (1,69)                0.33000      2.0000       1.00000E-03  133.28       1.0000       86.400       3.00000E-02  1.0000     
    256     (1,66)                6.8200       2.0000       1.00000E-03  133.28       1.0000       86.400       3.00000E-02  1.0000     
    257     (1,65)                0.28000      2.0000       1.00000E-03  133.28       1.0000       86.400       3.00000E-02  1.0000     
    258     (1,63)                6.1400       2.0000       1.00000E-03  133.27       1.0000       86.400       3.00000E-02  1.0000     
    259     (1,60)                1.6700       2.0000       1.00000E-03  133.27       1.0000       86.400       3.00000E-02  1.0000     
    260     (1,36)                5.4100       2.0000       1.00000E-03  133.15       1.0000       86.400       3.00000E-02  1.0000     
    261     (1,35)                2.0700       2.0000       1.00000E-03  133.15       1.0000       86.400       3.00000E-02  1.0000     
    262     (1,33)                4.1000       2.0000       1.00000E-03  133.15       1.0000       86.400       3.00000E-02  1.0000     
    263     (1,30)                3.6700       2.0000       1.00000E-03  133.15       1.0000       86.400       3.00000E-02  1.0000     
    264     (1,8)                 3.4100       2.0000       1.00000E-03  133.15       1.0000       86.400       3.00000E-02  1.0000     
    265     (1,7)                 3.6700       2.0000       1.00000E-03  133.15       1.0000       86.400       3.00000E-02  1.0000     
    266     (1,5)                 0.40000      2.0000       1.00000E-03  133.15       1.0000       86.400       3.00000E-02  1.0000     
 ---------------------------------------------------------------------------------------------------------------------------------------



 SFR PACKAGE (SFR) STATIC REACH CONNECTION DATA
 --------------------------------
   REACH      CONN 1     CONN 2  
 --------------------------------
     1          2                
     2          1          3     
     3          2          4     
     4          3          5     
     5          4          6     
     6          5          7     
     7          6          8     
     8          7          9     
     9          8          10    
     10         9          11    
     11         10         12    
     12         11         13    
     13         12         14    
     14         13         15    
     15         14         16    
     16         15         17    
     17         16         18    
     18         17         19    
     19         18         20    
     20         19         21    
     21         20         22    
     22         21         23    
     23         22         24    
     24         23         25    
     25         24         26    
     26         25         27    
     27         26         28    
     28         27         29    
     29         28         30    
     30         29         31    
     31         30         32    
     32         31         33    
     33         32         34    
     34         33         35    
     35         34         36    
     36         35         37    
     37         36         38    
     38         37         39    
     39         38         40    
     40         39         41    
     41         40         42    
     42         41         43    
     43         42         44    
     44         43         45    
     45         44         46    
     46         45         47    
     47         46         48    
     48         47         49    
     49         48         50    
     50         49         51    
     51         50         52    
     52         51         53    
     53         52         54    
     54         53         55    
     55         54         56    
     56         55         57    
     57         56         58    
     58         57         59    
     59         58         60    
     60         59         61    
     61         60         62    
     62         61         63    
     63         62         64    
     64         63         65    
     65         64         66    
     66         65         67    
     67         66         68    
     68         67         69    
     69         68         70    
     70         69         71    
     71         70         72    
     72         71         73    
     73         72         74    
     74         73         75    
     75         74         76    
     76         75         77    
     77         76         78    
     78         77         79    
     79         78         80    
     80         79         81    
     81         80         82    
     82         81         83    
     83         82         84    
     84         83         85    
     85         84         86    
     86         85         87    
     87         86         88    
     88         87         89    
     89         88         90    
     90         89         91    
     91         90         92    
     92         91         93    
     93         92         94    
     94         93         95    
     95         94         96    
     96         95         97    
     97         96         98    
     98         97         99    
     99         98        100    
    100         99        101    
    101        100        102    
    102        101        103    
    103        102        104    
    104        103        105    
    105        104        106    
    106        105        107    
    107        106        108    
    108        107        109    
    109        108        110    
    110        109        111    
    111        110        112    
    112        111        113    
    113        112        114    
    114        113        115    
    115        114        116    
    116        115        117    
    117        116        118    
    118        117        119    
    119        118        120    
    120        119        121    
    121        120        122    
    122        121        123    
    123        122        124    
    124        123        125    
    125        124        126    
    126        125        127    
    127        126        128    
    128        127        129    
    129        128        130    
    130        129        131    
    131        130        132    
    132        131        133    
    133        132        134    
    134        133        135    
    135        134        136    
    136        135        137    
    137        136        138    
    138        137        139    
    139        138        140    
    140        139        141    
    141        140        142    
    142        141        143    
    143        142        144    
    144        143        145    
    145        144        146    
    146        145        147    
    147        146        148    
    148        147        149    
    149        148        150    
    150        149        151    
    151        150        152    
    152        151        153    
    153        152        154    
    154        153        155    
    155        154        156    
    156        155        157    
    157        156        158    
    158        157        159    
    159        158        160    
    160        159        161    
    161        160        162    
    162        161        163    
    163        162        164    
    164        163        165    
    165        164        166    
    166        165        167    
    167        166        168    
    168        167        169    
    169        168        170    
    170        169        171    
    171        170        172    
    172        171        173    
    173        172        174    
    174        173        175    
    175        174        176    
    176        175        177    
    177        176        178    
    178        177        179    
    179        178        180    
    180        179        181    
    181        180        182    
    182        181        183    
    183        182        184    
    184        183        185    
    185        184        186    
    186        185        187    
    187        186        188    
    188        187        189    
    189        188        190    
    190        189        191    
    191        190        192    
    192        191        193    
    193        192        194    
    194        193        195    
    195        194        196    
    196        195        197    
    197        196        198    
    198        197        199    
    199        198        200    
    200        199        201    
    201        200        202    
    202        201        203    
    203        202        204    
    204        203        205    
    205        204        206    
    206        205        207    
    207        206        208    
    208        207        209    
    209        208        210    
    210        209        211    
    211        210        212    
    212        211        213    
    213        212        214    
    214        213        215    
    215        214        216    
    216        215        217    
    217        216        218    
    218        217        219    
    219        218        220    
    220        219        221    
    221        220        222    
    222        221        223    
    223        222        224    
    224        223        225    
    225        224        226    
    226        225        227    
    227        226        228    
    228        227        229    
    229        228        230    
    230        229        231    
    231        230        232    
    232        231        233    
    233        232        234    
    234        233        235    
    235        234        236    
    236        235        237    
    237        236        238    
    238        237        239    
    239        238        240    
    240        239        241    
    241        240        242    
    242        241        243    
    243        242        244    
    244        243        245    
    245        244        246    
    246        245        247    
    247        246        248    
    248        247        249    
    249        248        250    
    250        249        251    
    251        250        252    
    252        251        253    
    253        252        254    
    254        253        255    
    255        254        256    
    256        255        257    
    257        256        258    
    258        257        259    
    259        258        260    
    260        259        261    
    261        260        262    
    262        261        263    
    263        262        264    
    264        263        265    
    265        264        266    
    266        265               
 --------------------------------



 SFR PACKAGE (SFR) STATIC UPSTREAM REACH CONNECTION DATA
 ---------------------
             UPSTREAM 
   REACH      CONN 1  
 ---------------------
     1                
     2          1     
     3          2     
     4          3     
     5          4     
     6          5     
     7          6     
     8          7     
     9          8     
     10         9     
     11         10    
     12         11    
     13         12    
     14         13    
     15         14    
     16         15    
     17         16    
     18         17    
     19         18    
     20         19    
     21         20    
     22         21    
     23         22    
     24         23    
     25         24    
     26         25    
     27         26    
     28         27    
     29         28    
     30         29    
     31         30    
     32         31    
     33         32    
     34         33    
     35         34    
     36         35    
     37         36    
     38         37    
     39         38    
     40         39    
     41         40    
     42         41    
     43         42    
     44         43    
     45         44    
     46         45    
     47         46    
     48         47    
     49         48    
     50         49    
     51         50    
     52         51    
     53         52    
     54         53    
     55         54    
     56         55    
     57         56    
     58         57    
     59         58    
     60         59    
     61         60    
     62         61    
     63         62    
     64         63    
     65         64    
     66         65    
     67         66    
     68         67    
     69         68    
     70         69    
     71         70    
     72         71    
     73         72    
     74         73    
     75         74    
     76         75    
     77         76    
     78         77    
     79         78    
     80         79    
     81         80    
     82         81    
     83         82    
     84         83    
     85         84    
     86         85    
     87         86    
     88         87    
     89         88    
     90         89    
     91         90    
     92         91    
     93         92    
     94         93    
     95         94    
     96         95    
     97         96    
     98         97    
     99         98    
    100         99    
    101        100    
    102        101    
    103        102    
    104        103    
    105        104    
    106        105    
    107        106    
    108        107    
    109        108    
    110        109    
    111        110    
    112        111    
    113        112    
    114        113    
    115        114    
    116        115    
    117        116    
    118        117    
    119        118    
    120        119    
    121        120    
    122        121    
    123        122    
    124        123    
    125        124    
    126        125    
    127        126    
    128        127    
    129        128    
    130        129    
    131        130    
    132        131    
    133        132    
    134        133    
    135        134    
    136        135    
    137        136    
    138        137    
    139        138    
    140        139    
    141        140    
    142        141    
    143        142    
    144        143    
    145        144    
    146        145    
    147        146    
    148        147    
    149        148    
    150        149    
    151        150    
    152        151    
    153        152    
    154        153    
    155        154    
    156        155    
    157        156    
    158        157    
    159        158    
    160        159    
    161        160    
    162        161    
    163        162    
    164        163    
    165        164    
    166        165    
    167        166    
    168        167    
    169        168    
    170        169    
    171        170    
    172        171    
    173        172    
    174        173    
    175        174    
    176        175    
    177        176    
    178        177    
    179        178    
    180        179    
    181        180    
    182        181    
    183        182    
    184        183    
    185        184    
    186        185    
    187        186    
    188        187    
    189        188    
    190        189    
    191        190    
    192        191    
    193        192    
    194        193    
    195        194    
    196        195    
    197        196    
    198        197    
    199        198    
    200        199    
    201        200    
    202        201    
    203        202    
    204        203    
    205        204    
    206        205    
    207        206    
    208        207    
    209        208    
    210        209    
    211        210    
    212        211    
    213        212    
    214        213    
    215        214    
    216        215    
    217        216    
    218        217    
    219        218    
    220        219    
    221        220    
    222        221    
    223        222    
    224        223    
    225        224    
    226        225    
    227        226    
    228        227    
    229        228    
    230        229    
    231        230    
    232        231    
    233        232    
    234        233    
    235        234    
    236        235    
    237        236    
    238        237    
    239        238    
    240        239    
    241        240    
    242        241    
    243        242    
    244        243    
    245        244    
    246        245    
    247        246    
    248        247    
    249        248    
    250        249    
    251        250    
    252        251    
    253        252    
    254        253    
    255        254    
    256        255    
    257        256    
    258        257    
    259        258    
    260        259    
    261        260    
    262        261    
    263        262    
    264        263    
    265        264    
    266        265    
 ---------------------



 SFR PACKAGE (SFR) STATIC DOWNSTREAM REACH CONNECTION DATA
 ---------------------
            DOWNSTREAM
   REACH      CONN 1  
 ---------------------
     1          2     
     2          3     
     3          4     
     4          5     
     5          6     
     6          7     
     7          8     
     8          9     
     9          10    
     10         11    
     11         12    
     12         13    
     13         14    
     14         15    
     15         16    
     16         17    
     17         18    
     18         19    
     19         20    
     20         21    
     21         22    
     22         23    
     23         24    
     24         25    
     25         26    
     26         27    
     27         28    
     28         29    
     29         30    
     30         31    
     31         32    
     32         33    
     33         34    
     34         35    
     35         36    
     36         37    
     37         38    
     38         39    
     39         40    
     40         41    
     41         42    
     42         43    
     43         44    
     44         45    
     45         46    
     46         47    
     47         48    
     48         49    
     49         50    
     50         51    
     51         52    
     52         53    
     53         54    
     54         55    
     55         56    
     56         57    
     57         58    
     58         59    
     59         60    
     60         61    
     61         62    
     62         63    
     63         64    
     64         65    
     65         66    
     66         67    
     67         68    
     68         69    
     69         70    
     70         71    
     71         72    
     72         73    
     73         74    
     74         75    
     75         76    
     76         77    
     77         78    
     78         79    
     79         80    
     80         81    
     81         82    
     82         83    
     83         84    
     84         85    
     85         86    
     86         87    
     87         88    
     88         89    
     89         90    
     90         91    
     91         92    
     92         93    
     93         94    
     94         95    
     95         96    
     96         97    
     97         98    
     98         99    
     99        100    
    100        101    
    101        102    
    102        103    
    103        104    
    104        105    
    105        106    
    106        107    
    107        108    
    108        109    
    109        110    
    110        111    
    111        112    
    112        113    
    113        114    
    114        115    
    115        116    
    116        117    
    117        118    
    118        119    
    119        120    
    120        121    
    121        122    
    122        123    
    123        124    
    124        125    
    125        126    
    126        127    
    127        128    
    128        129    
    129        130    
    130        131    
    131        132    
    132        133    
    133        134    
    134        135    
    135        136    
    136        137    
    137        138    
    138        139    
    139        140    
    140        141    
    141        142    
    142        143    
    143        144    
    144        145    
    145        146    
    146        147    
    147        148    
    148        149    
    149        150    
    150        151    
    151        152    
    152        153    
    153        154    
    154        155    
    155        156    
    156        157    
    157        158    
    158        159    
    159        160    
    160        161    
    161        162    
    162        163    
    163        164    
    164        165    
    165        166    
    166        167    
    167        168    
    168        169    
    169        170    
    170        171    
    171        172    
    172        173    
    173        174    
    174        175    
    175        176    
    176        177    
    177        178    
    178        179    
    179        180    
    180        181    
    181        182    
    182        183    
    183        184    
    184        185    
    185        186    
    186        187    
    187        188    
    188        189    
    189        190    
    190        191    
    191        192    
    192        193    
    193        194    
    194        195    
    195        196    
    196        197    
    197        198    
    198        199    
    199        200    
    200        201    
    201        202    
    202        203    
    203        204    
    204        205    
    205        206    
    206        207    
    207        208    
    208        209    
    209        210    
    210        211    
    211        212    
    212        213    
    213        214    
    214        215    
    215        216    
    216        217    
    217        218    
    218        219    
    219        220    
    220        221    
    221        222    
    222        223    
    223        224    
    224        225    
    225        226    
    226        227    
    227        228    
    228        229    
    229        230    
    230        231    
    231        232    
    232        233    
    233        234    
    234        235    
    235        236    
    236        237    
    237        238    
    238        239    
    239        240    
    240        241    
    241        242    
    242        243    
    243        244    
    244        245    
    245        246    
    246        247    
    247        248    
    248        249    
    249        250    
    250        251    
    251        252    
    252        253    
    253        254    
    254        255    
    255        256    
    256        257    
    257        258    
    258        259    
    259        260    
    260        261    
    261        262    
    262        263    
    263        264    
    264        265    
    265        266    
    266               
 ---------------------



start timestep kper="1" kstp="1" mode="normal"


 BEGIN READING OUTPUT CONTROL FOR STRESS PERIOD 1
      ALL TIME STEPS WILL BE SAVED
      ALL TIME STEPS WILL BE SAVED
      THE FIRST TIME STEP WILL BE PRINTED
      THE LAST TIME STEP WILL BE PRINTED
      THE LAST TIME STEP WILL BE PRINTED

 END READING OUTPUT CONTROL FOR STRESS PERIOD 1


 PROCESSING STORAGE PERIOD DATA
 END PROCESSING STORAGE PERIOD DATA


 STRESS PERIOD 1 IS STEADY-STATE

 -----------------------------------------------------------------------------------------------------
  GHB NO.    LAYER  CELL2D       STAGE         CONDUCTANCE    BOUNDNAME                               
 -----------------------------------------------------------------------------------------------------
     1         1      830    142.500000       86.4000000      RED                                     
     2         1      913    142.500000       86.4000000      RED                                     
     3         1      996    142.500000       86.4000000      RED                                     
     4         1     1076    142.500000       86.4000000      RED                                     
     5         1     1156    142.500000       86.4000000      RED                                     
     6         1     1239    142.500000       86.4000000      RED                                     
     7         1     1319    142.500000       86.4000000      RED                                     
     8         1     1398    142.500000       86.4000000      RED                                     
     9         1     1485    142.500000       86.4000000      RED                                     
     10        1     1580    142.500000       86.4000000      RED                                     
     11        1     1692    142.500000       86.4000000      RED                                     
     12        1     1776    142.500000       86.4000000      RED                                     
     13        1     1853    142.500000       86.4000000      RED                                     
     14        1     1929    142.500000       86.4000000      RED                                     
     15        1     2004    142.500000       86.4000000      RED                                     
     16        1     2075    142.500000       86.4000000      RED                                     
     17        1     2145    142.500000       86.4000000      RED                                     
     18        1     2214    142.500000       86.4000000      RED                                     
     19        1     2309    142.500000       86.4000000      RED                                     
     20        1     2403    142.500000       86.4000000      RED                                     
     21        1     2487    142.500000       86.4000000      RED                                     
     22        1     2564    142.500000       86.4000000      RED                                     
     23        1     2565    142.500000       86.4000000      RED                                     
     24        1     2635    142.500000       86.4000000      RED                                     
     25        1     2704    142.500000       86.4000000      RED                                     
     26        1     2784    142.500000       86.4000000      RED                                     
     27        1      428    143.000000       86.4000000      ORANGERED                               
     28        1      504    143.000000       86.4000000      ORANGERED                               
     29        1      584    143.000000       86.4000000      ORANGERED                               
     30        1      665    143.000000       86.4000000      ORANGERED                               
     31        1      747    143.000000       86.4000000      ORANGERED                               
     32        1      312    137.500000       86.4000000      ORANGE                                  
     33        1      313    137.500000       86.4000000      ORANGE                                  
     34        1      314    137.500000       86.4000000      ORANGE                                  
     35        1      315    137.500000       86.4000000      ORANGE                                  
     36        1      316    137.500000       86.4000000      ORANGE                                  
     37        1      317    137.500000       86.4000000      ORANGE                                  
     38        1      318    137.500000       86.4000000      ORANGE                                  
     39        1      319    137.500000       86.4000000      ORANGE                                  
     40        1      320    137.500000       86.4000000      ORANGE                                  
     41        1      321    137.500000       86.4000000      ORANGE                                  
     42        1      322    137.500000       86.4000000      ORANGE                                  
     43        1      323    137.500000       86.4000000      ORANGE                                  
     44        1      324    137.500000       86.4000000      ORANGE                                  
     45        1      325    137.500000       86.4000000      ORANGE                                  
     46        1      326    137.500000       86.4000000      ORANGE                                  
     47        1      327    137.500000       86.4000000      ORANGE                                  
     48        1      328    137.500000       86.4000000      ORANGE                                  
     49        1      329    137.500000       86.4000000      ORANGE                                  
     50        1      330    137.500000       86.4000000      ORANGE                                  
     51        1      331    137.500000       86.4000000      ORANGE                                  
     52        1      332    137.500000       86.4000000      ORANGE                                  
     53        1      333    137.500000       86.4000000      ORANGE                                  
     54        1      334    137.500000       86.4000000      ORANGE                                  
     55        1      335    137.693893       86.4000000      ORANGE                                  
     56        1      336    137.912094       86.4000000      ORANGE                                  
     57        1      337    137.988297       86.4000000      ORANGE                                  
     58        1      338    137.979095       86.4000000      ORANGE                                  
     59        1      339    137.994705       86.4000000      ORANGE                                  
     60        1      340    138.170303       86.4000000      ORANGE                                  
     61        1      341    138.331497       86.4000000      ORANGE                                  
     62        1      342    138.308304       86.4000000      ORANGE                                  
     63        1      343    138.457901       86.4000000      ORANGE                                  
     64        1      344    138.635498       86.4000000      ORANGE                                  
     65        1      345    138.630798       86.4000000      ORANGE                                  
     66        1      346    138.478806       86.4000000      ORANGE                                  
     67        1      347    138.828003       86.4000000      ORANGE                                  
     68        1      51     135.500000       86.4000000      GOLD                                    
     69        1      84     135.500000       86.4000000      GOLD                                    
     70        1      116    135.500000       86.4000000      GOLD                                    
     71        1      150    135.500000       86.4000000      GOLD                                    
     72        1      186    135.500000       86.4000000      GOLD                                    
     73        1      224    135.500000       86.4000000      GOLD                                    
     74        1      264    135.500000       86.4000000      GOLD                                    
     75        1       1     134.500000       86.4000000      YELLOWGREEN                             
     76        1       2     134.500000       86.4000000      YELLOWGREEN                             
     77        1       3     134.500000       86.4000000      YELLOWGREEN                             
     78        1       4     134.500000       86.4000000      YELLOWGREEN                             
     79        1       5     134.500000       86.4000000      YELLOWGREEN                             
     80        1       6     134.500000       86.4000000      YELLOWGREEN                             
     81        1       9     134.500000       86.4000000      YELLOWGREEN                             
     82        1      10     134.500000       86.4000000      YELLOWGREEN                             
     83        1      11     134.500000       86.4000000      YELLOWGREEN                             
     84        1      12     134.500000       86.4000000      YELLOWGREEN                             
     85        1      13     134.500000       86.4000000      YELLOWGREEN                             
     86        1      14     134.500000       86.4000000      YELLOWGREEN                             
     87        1      15     134.500000       86.4000000      YELLOWGREEN                             
     88        1      16     134.500000       86.4000000      YELLOWGREEN                             
     89        1      17     134.500000       86.4000000      YELLOWGREEN                             
     90        1      18     134.500000       86.4000000      YELLOWGREEN                             
     91        1      19     134.500000       86.4000000      YELLOWGREEN                             
     92        1      20     134.500000       86.4000000      YELLOWGREEN                             
     93        1      21     134.500000       86.4000000      YELLOWGREEN                             
     94        1      22     134.500000       86.4000000      YELLOWGREEN                             
     95        1      23     134.500000       86.4000000      YELLOWGREEN                             
     96        1      52     133.600000       86.4000000      LIMEGREEN                               
     97        1      85     133.600000       86.4000000      LIMEGREEN                               
     98        1      117    133.600000       86.4000000      LIMEGREEN                               
     99        1      151    133.600000       86.4000000      LIMEGREEN                               
    100        1      187    133.600000       86.4000000      LIMEGREEN                               
    101        1      265    133.200000       86.4000000      AQUA                                    
    102        1      348    133.200000       86.4000000      AQUA                                    
    103        1      429    133.200000       86.4000000      AQUA                                    
    104        1      505    133.200000       86.4000000      AQUA                                    
    105        1      585    133.200000       86.4000000      AQUA                                    
    106        1      666    133.200000       86.4000000      AQUA                                    
    107        1      748    133.200000       86.4000000      AQUA                                    
    108        1      831    133.200000       86.4000000      AQUA                                    
    109        1      914    133.200000       86.4000000      AQUA                                    
    110        1      997    133.200000       86.4000000      AQUA                                    
    111        1     1077    133.200000       86.4000000      AQUA                                    
    112        1     1157    133.200000       86.4000000      AQUA                                    
    113        1     1240    133.200000       86.4000000      AQUA                                    
    114        1     1399    133.200000       86.4000000      DARKTURQUOISE                           
    115        1     1486    133.200000       86.4000000      DARKTURQUOISE                           
    116        1     1581    133.200000       86.4000000      DARKTURQUOISE                           
    117        1     1693    133.200000       86.4000000      DARKTURQUOISE                           
    118        1     1777    133.200000       86.4000000      DARKTURQUOISE                           
    119        1     1854    133.200000       86.4000000      DARKTURQUOISE                           
    120        1     1930    133.200000       86.4000000      DARKTURQUOISE                           
    121        1     2005    133.200000       86.4000000      DARKTURQUOISE                           
    122        1     2076    133.200000       86.4000000      DARKTURQUOISE                           
    123        1     2146    133.200000       86.4000000      DARKTURQUOISE                           
    124        1     2215    133.200000       86.4000000      DARKTURQUOISE                           
    125        1     2310    133.200000       86.4000000      DARKTURQUOISE                           
    126        1     2404    133.200000       86.4000000      DARKTURQUOISE                           
    127        1     2488    133.200000       86.4000000      DARKTURQUOISE                           
    128        1     2566    133.200000       86.4000000      DARKTURQUOISE                           
    129        1     2636    133.200000       86.4000000      DARKTURQUOISE                           
    130        1     2705    133.200000       86.4000000      DARKTURQUOISE                           
    131        1     2785    133.200000       86.4000000      DARKTURQUOISE                           
    132        1     2856    133.200000       86.4000000      DARKTURQUOISE                           
    133        1     2921    133.200000       86.4000000      DARKTURQUOISE                           
    134        1     2971    133.200000       86.4000000      DARKTURQUOISE                           
    135        1     3018    133.200000       86.4000000      DARKTURQUOISE                           
    136        1     3061    133.462006       86.4000000      DARKTURQUOISE                           
    137        1     3097    134.633896       86.4000000      DARKTURQUOISE                           
    138        1     3126    136.711899       86.4000000      ROYALBLUE                               
    139        1     3127    137.495697       86.4000000      ROYALBLUE                               
    140        1     3128    138.313507       86.4000000      ROYALBLUE                               
    141        1     3129    139.249405       86.4000000      ROYALBLUE                               
    142        1     3130    139.835693       86.4000000      ROYALBLUE                               
    143        1     3131    140.728104       86.4000000      ROYALBLUE                               
    144        1     3132    141.188797       86.4000000      ROYALBLUE                               
    145        1     3133    141.609802       86.4000000      ROYALBLUE                               
    146        1     3134    141.910904       86.4000000      ROYALBLUE                               
    147        1     3135    142.142197       86.4000000      ROYALBLUE                               
    148        1     3112    141.270401       86.4000000      BLUE                                    
    149        1     3125    142.113602       86.4000000      BLUE                                    
    150        1     3078    140.132797       86.4000000      BLUEVIOLET                              
    151        1     3079    139.932907       86.4000000      BLUEVIOLET                              
    152        1     3080    139.604294       86.4000000      BLUEVIOLET                              
    153        1     3081    139.418594       86.4000000      BLUEVIOLET                              
    154        1     3082    139.438400       86.4000000      BLUEVIOLET                              
    155        1     3083    139.939697       86.4000000      BLUEVIOLET                              
    156        1     3084    139.788803       86.4000000      BLUEVIOLET                              
    157        1     3085    139.730103       86.4000000      BLUEVIOLET                              
    158        1     3086    139.743195       86.4000000      BLUEVIOLET                              
    159        1     3087    139.697495       86.4000000      BLUEVIOLET                              
    160        1     3088    139.811005       86.4000000      BLUEVIOLET                              
    161        1     3089    139.843201       86.4000000      BLUEVIOLET                              
    162        1     3090    139.720398       86.4000000      BLUEVIOLET                              
    163        1     3091    139.802704       86.4000000      BLUEVIOLET                              
    164        1     3092    139.727707       86.4000000      BLUEVIOLET                              
    165        1     3093    139.958694       86.4000000      BLUEVIOLET                              
    166        1     3094    140.352707       86.4000000      BLUEVIOLET                              
    167        1     3095    140.726395       86.4000000      BLUEVIOLET                              
    168        1     3096    140.822693       86.4000000      BLUEVIOLET                              
    169        1     3055    141.222198       86.4000000      PURPLE                                  
    170        1     3056    142.104996       86.4000000      PURPLE                                  
    171        1     3057    142.760498       86.4000000      PURPLE                                  
    172        1     3058    143.357895       86.4000000      PURPLE                                  
    173        1     3059    143.709702       86.4000000      PURPLE                                  
    174        1     3060    144.099106       86.4000000      PURPLE                                  
    175        1     3015    143.393707       86.4000000      MEDIUMVIOLETRED                         
    176        1     3016    143.648804       86.4000000      MEDIUMVIOLETRED                         
    177        1     3017    143.819107       86.4000000      MEDIUMVIOLETRED                         
    178        1     2855    140.385696       86.4000000      CRIMSON                                 
    179        1     2920    141.427597       86.4000000      CRIMSON                                 
    180        1     2970    142.584702       86.4000000      CRIMSON                                 
 -----------------------------------------------------------------------------------------------------


 -------------------------------------------
  RCH NO.    LAYER  CELL2D      RECHARGE    
 -------------------------------------------
     1         1       7     5.479452050E-04
     2         1       8     5.479452050E-04
     3         1      24     5.479452050E-04
     4         1      25     5.479452050E-04
     5         1      26     5.479452050E-04
     6         1      27     5.479452050E-04
     7         1      28     5.479452050E-04
     8         1      29     5.479452050E-04
     9         1      30     5.479452050E-04
     10        1      31     5.479452050E-04
     11        1      32     5.479452050E-04
     12        1      33     5.479452050E-04
     13        1      34     5.479452050E-04
     14        1      35     5.479452050E-04
     15        1      36     5.479452050E-04
     16        1      37     5.479452050E-04
     17        1      38     5.479452050E-04
     18        1      39     5.479452050E-04
     19        1      40     5.479452050E-04
     20        1      41     5.479452050E-04
     21        1      42     5.479452050E-04
     22        1      43     5.479452050E-04
     23        1      44     5.479452050E-04
     24        1      45     5.479452050E-04
     25        1      46     5.479452050E-04
     26        1      47     5.479452050E-04
     27        1      48     5.479452050E-04
     28        1      49     5.479452050E-04
     29        1      50     5.479452050E-04
     30        1      53     5.479452050E-04
     31        1      54     5.479452050E-04
     32        1      55     5.479452050E-04
     33        1      56     5.479452050E-04
     34        1      57     5.479452050E-04
     35        1      58     5.479452050E-04
     36        1      59     5.479452050E-04
     37        1      60     5.479452050E-04
     38        1      61     5.479452050E-04
     39        1      62     5.479452050E-04
     40        1      63     5.479452050E-04
     41        1      64     5.479452050E-04
     42        1      65     5.479452050E-04
     43        1      66     5.479452050E-04
     44        1      67     5.479452050E-04
     45        1      68     5.479452050E-04
     46        1      69     5.479452050E-04
     47        1      70     5.479452050E-04
     48        1      71     5.479452050E-04
     49        1      72     5.479452050E-04
     50        1      73     5.479452050E-04
     51        1      74     5.479452050E-04
     52        1      75     5.479452050E-04
     53        1      76     5.479452050E-04
     54        1      77     5.479452050E-04
     55        1      78     5.479452050E-04
     56        1      79     5.479452050E-04
     57        1      80     5.479452050E-04
     58        1      81     5.479452050E-04
     59        1      82     5.479452050E-04
     60        1      83     5.479452050E-04
     61        1      86     5.479452050E-04
     62        1      87     5.479452050E-04
     63        1      88     5.479452050E-04
     64        1      89     5.479452050E-04
     65        1      90     5.479452050E-04
     66        1      91     5.479452050E-04
     67        1      92     5.479452050E-04
     68        1      93     5.479452050E-04
     69        1      94     5.479452050E-04
     70        1      95     5.479452050E-04
     71        1      96     5.479452050E-04
     72        1      97     5.479452050E-04
     73        1      98     5.479452050E-04
     74        1      99     5.479452050E-04
     75        1      100    5.479452050E-04
     76        1      101    5.479452050E-04
     77        1      102    5.479452050E-04
     78        1      103    5.479452050E-04
     79        1      104    5.479452050E-04
     80        1      105    5.479452050E-04
     81        1      106    5.479452050E-04
     82        1      107    5.479452050E-04
     83        1      108    5.479452050E-04
     84        1      109    5.479452050E-04
     85        1      110    5.479452050E-04
     86        1      111    5.479452050E-04
     87        1      112    5.479452050E-04
     88        1      113    5.479452050E-04
     89        1      114    5.479452050E-04
     90        1      115    5.479452050E-04
     91        1      118    5.479452050E-04
     92        1      119    5.479452050E-04
     93        1      120    5.479452050E-04
     94        1      121    5.479452050E-04
     95        1      122    5.479452050E-04
     96        1      123    5.479452050E-04
     97        1      124    5.479452050E-04
     98        1      125    5.479452050E-04
     99        1      126    5.479452050E-04
    100        1      127    5.479452050E-04
    101        1      128    5.479452050E-04
    102        1      129    5.479452050E-04
    103        1      130    5.479452050E-04
    104        1      131    5.479452050E-04
    105        1      132    5.479452050E-04
    106        1      133    5.479452050E-04
    107        1      134    5.479452050E-04
    108        1      135    5.479452050E-04
    109        1      136    5.479452050E-04
    110        1      137    5.479452050E-04
    111        1      138    5.479452050E-04
    112        1      139    5.479452050E-04
    113        1      140    5.479452050E-04
    114        1      141    5.479452050E-04
    115        1      142    5.479452050E-04
    116        1      143    5.479452050E-04
    117        1      144    5.479452050E-04
    118        1      145    5.479452050E-04
    119        1      146    5.479452050E-04
    120        1      147    5.479452050E-04
    121        1      148    5.479452050E-04
    122        1      149    5.479452050E-04
    123        1      152    5.479452050E-04
    124        1      153    5.479452050E-04
    125        1      154    5.479452050E-04
    126        1      155    5.479452050E-04
    127        1      156    5.479452050E-04
    128        1      157    5.479452050E-04
    129        1      158    5.479452050E-04
    130        1      159    5.479452050E-04
    131        1      160    5.479452050E-04
    132        1      161    5.479452050E-04
    133        1      162    5.479452050E-04
    134        1      163    5.479452050E-04
    135        1      164    5.479452050E-04
    136        1      165    5.479452050E-04
    137        1      166    5.479452050E-04
    138        1      167    5.479452050E-04
    139        1      168    5.479452050E-04
    140        1      169    5.479452050E-04
    141        1      170    5.479452050E-04
    142        1      171    5.479452050E-04
    143        1      172    5.479452050E-04
    144        1      173    5.479452050E-04
    145        1      174    5.479452050E-04
    146        1      175    5.479452050E-04
    147        1      176    5.479452050E-04
    148        1      177    5.479452050E-04
    149        1      178    5.479452050E-04
    150        1      179    5.479452050E-04
    151        1      180    5.479452050E-04
    152        1      181    5.479452050E-04
    153        1      182    5.479452050E-04
    154        1      183    5.479452050E-04
    155        1      184    5.479452050E-04
    156        1      185    5.479452050E-04
    157        1      188    5.479452050E-04
    158        1      189    5.479452050E-04
    159        1      190    5.479452050E-04
    160        1      191    5.479452050E-04
    161        1      192    5.479452050E-04
    162        1      193    5.479452050E-04
    163        1      194    5.479452050E-04
    164        1      195    5.479452050E-04
    165        1      196    5.479452050E-04
    166        1      197    5.479452050E-04
    167        1      198    5.479452050E-04
    168        1      199    5.479452050E-04
    169        1      200    5.479452050E-04
    170        1      201    5.479452050E-04
    171        1      202    5.479452050E-04
    172        1      203    5.479452050E-04
    173        1      204    5.479452050E-04
    174        1      205    5.479452050E-04
    175        1      206    5.479452050E-04
    176        1      207    5.479452050E-04
    177        1      208    5.479452050E-04
    178        1      209    5.479452050E-04
    179        1      210    5.479452050E-04
    180        1      211    5.479452050E-04
    181        1      212    5.479452050E-04
    182        1      213    5.479452050E-04
    183        1      214    5.479452050E-04
    184        1      215    5.479452050E-04
    185        1      216    5.479452050E-04
    186        1      217    5.479452050E-04
    187        1      218    5.479452050E-04
    188        1      219    5.479452050E-04
    189        1      220    5.479452050E-04
    190        1      221    5.479452050E-04
    191        1      222    5.479452050E-04
    192        1      223    5.479452050E-04
    193        1      225    5.479452050E-04
    194        1      226    5.479452050E-04
    195        1      227    5.479452050E-04
    196        1      228    5.479452050E-04
    197        1      229    5.479452050E-04
    198        1      230    5.479452050E-04
    199        1      231    5.479452050E-04
    200        1      232    5.479452050E-04
    201        1      233    5.479452050E-04
    202        1      234    5.479452050E-04
    203        1      235    5.479452050E-04
    204        1      236    5.479452050E-04
    205        1      237    5.479452050E-04
    206        1      238    5.479452050E-04
    207        1      239    5.479452050E-04
    208        1      240    5.479452050E-04
    209        1      241    5.479452050E-04
    210        1      242    5.479452050E-04
    211        1      243    5.479452050E-04
    212        1      244    5.479452050E-04
    213        1      245    5.479452050E-04
    214        1      246    5.479452050E-04
    215        1      247    5.479452050E-04
    216        1      248    5.479452050E-04
    217        1      249    5.479452050E-04
    218        1      250    5.479452050E-04
    219        1      251    5.479452050E-04
    220        1      252    5.479452050E-04
    221        1      253    5.479452050E-04
    222        1      254    5.479452050E-04
    223        1      255    5.479452050E-04
    224        1      256    5.479452050E-04
    225        1      257    5.479452050E-04
    226        1      258    5.479452050E-04
    227        1      259    5.479452050E-04
    228        1      260    5.479452050E-04
    229        1      261    5.479452050E-04
    230        1      262    5.479452050E-04
    231        1      263    5.479452050E-04
    232        1      266    5.479452050E-04
    233        1      267    5.479452050E-04
    234        1      268    5.479452050E-04
    235        1      269    5.479452050E-04
    236        1      270    5.479452050E-04
    237        1      271    5.479452050E-04
    238        1      272    5.479452050E-04
    239        1      273    5.479452050E-04
    240        1      274    5.479452050E-04
    241        1      275    5.479452050E-04
    242        1      276    5.479452050E-04
    243        1      277    5.479452050E-04
    244        1      278    5.479452050E-04
    245        1      279    5.479452050E-04
    246        1      280    5.479452050E-04
    247        1      281    5.479452050E-04
    248        1      282    5.479452050E-04
    249        1      283    5.479452050E-04
    250        1      284    5.479452050E-04
    251        1      285    5.479452050E-04
    252        1      286    5.479452050E-04
    253        1      287    5.479452050E-04
    254        1      288    5.479452050E-04
    255        1      289    5.479452050E-04
    256        1      290    5.479452050E-04
    257        1      291    5.479452050E-04
    258        1      292    5.479452050E-04
    259        1      293    5.479452050E-04
    260        1      294    5.479452050E-04
    261        1      295    5.479452050E-04
    262        1      296    5.479452050E-04
    263        1      297    5.479452050E-04
    264        1      298    5.479452050E-04
    265        1      299    5.479452050E-04
    266        1      300    5.479452050E-04
    267        1      301    5.479452050E-04
    268        1      302    5.479452050E-04
    269        1      303    5.479452050E-04
    270        1      304    5.479452050E-04
    271        1      305    5.479452050E-04
    272        1      306    5.479452050E-04
    273        1      307    5.479452050E-04
    274        1      308    5.479452050E-04
    275        1      309    5.479452050E-04
    276        1      310    5.479452050E-04
    277        1      311    5.479452050E-04
    278        1      349    5.479452050E-04
    279        1      350    5.479452050E-04
    280        1      351    5.479452050E-04
    281        1      352    5.479452050E-04
    282        1      353    5.479452050E-04
    283        1      354    5.479452050E-04
    284        1      355    5.479452050E-04
    285        1      356    5.479452050E-04
    286        1      357    5.479452050E-04
    287        1      358    5.479452050E-04
    288        1      359    5.479452050E-04
    289        1      360    5.479452050E-04
    290        1      361    5.479452050E-04
    291        1      362    5.479452050E-04
    292        1      363    5.479452050E-04
    293        1      364    5.479452050E-04
    294        1      365    5.479452050E-04
    295        1      366    5.479452050E-04
    296        1      367    5.479452050E-04
    297        1      368    5.479452050E-04
    298        1      369    5.479452050E-04
    299        1      370    5.479452050E-04
    300        1      371    5.479452050E-04
    301        1      372    5.479452050E-04
    302        1      373    5.479452050E-04
    303        1      374    5.479452050E-04
    304        1      375    5.479452050E-04
    305        1      376    5.479452050E-04
    306        1      377    5.479452050E-04
    307        1      378    5.479452050E-04
    308        1      379    5.479452050E-04
    309        1      380    5.479452050E-04
    310        1      381    5.479452050E-04
    311        1      382    5.479452050E-04
    312        1      383    5.479452050E-04
    313        1      384    5.479452050E-04
    314        1      385    5.479452050E-04
    315        1      386    5.479452050E-04
    316        1      387    5.479452050E-04
    317        1      388    5.479452050E-04
    318        1      389    5.479452050E-04
    319        1      390    5.479452050E-04
    320        1      391    5.479452050E-04
    321        1      392    5.479452050E-04
    322        1      393    5.479452050E-04
    323        1      394    5.479452050E-04
    324        1      395    5.479452050E-04
    325        1      396    5.479452050E-04
    326        1      397    5.479452050E-04
    327        1      398    5.479452050E-04
    328        1      399    5.479452050E-04
    329        1      400    5.479452050E-04
    330        1      401    5.479452050E-04
    331        1      402    5.479452050E-04
    332        1      403    5.479452050E-04
    333        1      404    5.479452050E-04
    334        1      405    5.479452050E-04
    335        1      406    5.479452050E-04
    336        1      407    5.479452050E-04
    337        1      408    5.479452050E-04
    338        1      409    5.479452050E-04
    339        1      410    5.479452050E-04
    340        1      411    5.479452050E-04
    341        1      412    5.479452050E-04
    342        1      413    5.479452050E-04
    343        1      414    5.479452050E-04
    344        1      415    5.479452050E-04
    345        1      416    5.479452050E-04
    346        1      417    5.479452050E-04
    347        1      418    5.479452050E-04
    348        1      419    5.479452050E-04
    349        1      420    5.479452050E-04
    350        1      421    5.479452050E-04
    351        1      422    5.479452050E-04
    352        1      423    5.479452050E-04
    353        1      424    5.479452050E-04
    354        1      425    5.479452050E-04
    355        1      426    5.479452050E-04
    356        1      427    5.479452050E-04
    357        1      430    5.479452050E-04
    358        1      431    5.479452050E-04
    359        1      432    5.479452050E-04
    360        1      433    5.479452050E-04
    361        1      434    5.479452050E-04
    362        1      435    5.479452050E-04
    363        1      436    5.479452050E-04
    364        1      437    5.479452050E-04
    365        1      438    5.479452050E-04
    366        1      439    5.479452050E-04
    367        1      440    5.479452050E-04
    368        1      441    5.479452050E-04
    369        1      442    5.479452050E-04
    370        1      443    5.479452050E-04
    371        1      444    5.479452050E-04
    372        1      445    5.479452050E-04
    373        1      446    5.479452050E-04
    374        1      447    5.479452050E-04
    375        1      448    5.479452050E-04
    376        1      449    5.479452050E-04
    377        1      450    5.479452050E-04
    378        1      451    5.479452050E-04
    379        1      452    5.479452050E-04
    380        1      453    5.479452050E-04
    381        1      454    5.479452050E-04
    382        1      455    5.479452050E-04
    383        1      456    5.479452050E-04
    384        1      457    5.479452050E-04
    385        1      458    5.479452050E-04
    386        1      459    5.479452050E-04
    387        1      460    5.479452050E-04
    388        1      461    5.479452050E-04
    389        1      462    5.479452050E-04
    390        1      463    5.479452050E-04
    391        1      464    5.479452050E-04
    392        1      465    5.479452050E-04
    393        1      466    5.479452050E-04
    394        1      467    5.479452050E-04
    395        1      468    5.479452050E-04
    396        1      469    5.479452050E-04
    397        1      470    5.479452050E-04
    398        1      471    5.479452050E-04
    399        1      472    5.479452050E-04
    400        1      473    5.479452050E-04
    401        1      474    5.479452050E-04
    402        1      475    5.479452050E-04
    403        1      476    5.479452050E-04
    404        1      477    5.479452050E-04
    405        1      478    5.479452050E-04
    406        1      479    5.479452050E-04
    407        1      480    5.479452050E-04
    408        1      481    5.479452050E-04
    409        1      482    5.479452050E-04
    410        1      483    5.479452050E-04
    411        1      484    5.479452050E-04
    412        1      485    5.479452050E-04
    413        1      486    5.479452050E-04
    414        1      487    5.479452050E-04
    415        1      488    5.479452050E-04
    416        1      489    5.479452050E-04
    417        1      490    5.479452050E-04
    418        1      491    5.479452050E-04
    419        1      492    5.479452050E-04
    420        1      493    5.479452050E-04
    421        1      494    5.479452050E-04
    422        1      495    5.479452050E-04
    423        1      496    5.479452050E-04
    424        1      497    5.479452050E-04
    425        1      498    5.479452050E-04
    426        1      499    5.479452050E-04
    427        1      500    5.479452050E-04
    428        1      501    5.479452050E-04
    429        1      502    5.479452050E-04
    430        1      503    5.479452050E-04
    431        1      506    5.479452050E-04
    432        1      507    5.479452050E-04
    433        1      508    5.479452050E-04
    434        1      509    5.479452050E-04
    435        1      510    5.479452050E-04
    436        1      511    5.479452050E-04
    437        1      512    5.479452050E-04
    438        1      513    5.479452050E-04
    439        1      514    5.479452050E-04
    440        1      515    5.479452050E-04
    441        1      516    5.479452050E-04
    442        1      517    5.479452050E-04
    443        1      518    5.479452050E-04
    444        1      519    5.479452050E-04
    445        1      520    5.479452050E-04
    446        1      521    5.479452050E-04
    447        1      522    5.479452050E-04
    448        1      523    5.479452050E-04
    449        1      524    5.479452050E-04
    450        1      525    5.479452050E-04
    451        1      526    5.479452050E-04
    452        1      527    5.479452050E-04
    453        1      528    5.479452050E-04
    454        1      529    5.479452050E-04
    455        1      530    5.479452050E-04
    456        1      531    5.479452050E-04
    457        1      532    5.479452050E-04
    458        1      533    5.479452050E-04
    459        1      534    5.479452050E-04
    460        1      535    5.479452050E-04
    461        1      536    5.479452050E-04
    462        1      537    5.479452050E-04
    463        1      538    5.479452050E-04
    464        1      539    5.479452050E-04
    465        1      540    5.479452050E-04
    466        1      541    5.479452050E-04
    467        1      542    5.479452050E-04
    468        1      543    5.479452050E-04
    469        1      544    5.479452050E-04
    470        1      545    5.479452050E-04
    471        1      546    5.479452050E-04
    472        1      547    5.479452050E-04
    473        1      548    5.479452050E-04
    474        1      549    5.479452050E-04
    475        1      550    5.479452050E-04
    476        1      551    5.479452050E-04
    477        1      552    5.479452050E-04
    478        1      553    5.479452050E-04
    479        1      554    5.479452050E-04
    480        1      555    5.479452050E-04
    481        1      556    5.479452050E-04
    482        1      557    5.479452050E-04
    483        1      558    5.479452050E-04
    484        1      559    5.479452050E-04
    485        1      560    5.479452050E-04
    486        1      561    5.479452050E-04
    487        1      562    5.479452050E-04
    488        1      563    5.479452050E-04
    489        1      564    5.479452050E-04
    490        1      565    5.479452050E-04
    491        1      566    5.479452050E-04
    492        1      567    5.479452050E-04
    493        1      568    5.479452050E-04
    494        1      569    5.479452050E-04
    495        1      570    5.479452050E-04
    496        1      571    5.479452050E-04
    497        1      572    5.479452050E-04
    498        1      573    5.479452050E-04
    499        1      574    5.479452050E-04
    500        1      575    5.479452050E-04
    501        1      576    5.479452050E-04
    502        1      577    5.479452050E-04
    503        1      578    5.479452050E-04
    504        1      579    5.479452050E-04
    505        1      580    5.479452050E-04
    506        1      581    5.479452050E-04
    507        1      582    5.479452050E-04
    508        1      583    5.479452050E-04
    509        1      586    5.479452050E-04
    510        1      587    5.479452050E-04
    511        1      588    5.479452050E-04
    512        1      589    5.479452050E-04
    513        1      590    5.479452050E-04
    514        1      591    5.479452050E-04
    515        1      592    5.479452050E-04
    516        1      593    5.479452050E-04
    517        1      594    5.479452050E-04
    518        1      595    5.479452050E-04
    519        1      596    5.479452050E-04
    520        1      597    5.479452050E-04
    521        1      598    5.479452050E-04
    522        1      599    5.479452050E-04
    523        1      600    5.479452050E-04
    524        1      601    5.479452050E-04
    525        1      602    5.479452050E-04
    526        1      603    5.479452050E-04
    527        1      604    5.479452050E-04
    528        1      605    5.479452050E-04
    529        1      606    5.479452050E-04
    530        1      607    5.479452050E-04
    531        1      608    5.479452050E-04
    532        1      609    5.479452050E-04
    533        1      610    5.479452050E-04
    534        1      611    5.479452050E-04
    535        1      612    5.479452050E-04
    536        1      613    5.479452050E-04
    537        1      614    5.479452050E-04
    538        1      615    5.479452050E-04
    539        1      616    5.479452050E-04
    540        1      617    5.479452050E-04
    541        1      618    5.479452050E-04
    542        1      619    5.479452050E-04
    543        1      620    5.479452050E-04
    544        1      621    5.479452050E-04
    545        1      622    5.479452050E-04
    546        1      623    5.479452050E-04
    547        1      624    5.479452050E-04
    548        1      625    5.479452050E-04
    549        1      626    5.479452050E-04
    550        1      627    5.479452050E-04
    551        1      628    5.479452050E-04
    552        1      629    5.479452050E-04
    553        1      630    5.479452050E-04
    554        1      631    5.479452050E-04
    555        1      632    5.479452050E-04
    556        1      633    5.479452050E-04
    557        1      634    5.479452050E-04
    558        1      635    5.479452050E-04
    559        1      636    5.479452050E-04
    560        1      637    5.479452050E-04
    561        1      638    5.479452050E-04
    562        1      639    5.479452050E-04
    563        1      640    5.479452050E-04
    564        1      641    5.479452050E-04
    565        1      642    5.479452050E-04
    566        1      643    5.479452050E-04
    567        1      644    5.479452050E-04
    568        1      645    5.479452050E-04
    569        1      646    5.479452050E-04
    570        1      647    5.479452050E-04
    571        1      648    5.479452050E-04
    572        1      649    5.479452050E-04
    573        1      650    5.479452050E-04
    574        1      651    5.479452050E-04
    575        1      652    5.479452050E-04
    576        1      653    5.479452050E-04
    577        1      654    5.479452050E-04
    578        1      655    5.479452050E-04
    579        1      656    5.479452050E-04
    580        1      657    5.479452050E-04
    581        1      658    5.479452050E-04
    582        1      659    5.479452050E-04
    583        1      660    5.479452050E-04
    584        1      661    5.479452050E-04
    585        1      662    5.479452050E-04
    586        1      663    5.479452050E-04
    587        1      664    5.479452050E-04
    588        1      667    5.479452050E-04
    589        1      668    5.479452050E-04
    590        1      669    5.479452050E-04
    591        1      670    5.479452050E-04
    592        1      671    5.479452050E-04
    593        1      672    5.479452050E-04
    594        1      673    5.479452050E-04
    595        1      674    5.479452050E-04
    596        1      675    5.479452050E-04
    597        1      676    5.479452050E-04
    598        1      677    5.479452050E-04
    599        1      678    5.479452050E-04
    600        1      679    5.479452050E-04
    601        1      680    5.479452050E-04
    602        1      681    5.479452050E-04
    603        1      682    5.479452050E-04
    604        1      683    5.479452050E-04
    605        1      684    5.479452050E-04
    606        1      685    5.479452050E-04
    607        1      686    5.479452050E-04
    608        1      687    5.479452050E-04
    609        1      688    5.479452050E-04
    610        1      689    5.479452050E-04
    611        1      690    5.479452050E-04
    612        1      691    5.479452050E-04
    613        1      692    5.479452050E-04
    614        1      693    5.479452050E-04
    615        1      694    5.479452050E-04
    616        1      695    5.479452050E-04
    617        1      696    5.479452050E-04
    618        1      697    5.479452050E-04
    619        1      698    5.479452050E-04
    620        1      699    5.479452050E-04
    621        1      700    5.479452050E-04
    622        1      701    5.479452050E-04
    623        1      702    5.479452050E-04
    624        1      703    5.479452050E-04
    625        1      704    5.479452050E-04
    626        1      705    5.479452050E-04
    627        1      706    5.479452050E-04
    628        1      707    5.479452050E-04
    629        1      708    5.479452050E-04
    630        1      709    5.479452050E-04
    631        1      710    5.479452050E-04
    632        1      711    5.479452050E-04
    633        1      712    5.479452050E-04
    634        1      713    5.479452050E-04
    635        1      714    5.479452050E-04
    636        1      715    5.479452050E-04
    637        1      716    5.479452050E-04
    638        1      717    5.479452050E-04
    639        1      718    5.479452050E-04
    640        1      719    5.479452050E-04
    641        1      720    5.479452050E-04
    642        1      721    5.479452050E-04
    643        1      722    5.479452050E-04
    644        1      723    5.479452050E-04
    645        1      724    5.479452050E-04
    646        1      725    5.479452050E-04
    647        1      726    5.479452050E-04
    648        1      727    5.479452050E-04
    649        1      728    5.479452050E-04
    650        1      729    5.479452050E-04
    651        1      730    5.479452050E-04
    652        1      731    5.479452050E-04
    653        1      732    5.479452050E-04
    654        1      733    5.479452050E-04
    655        1      734    5.479452050E-04
    656        1      735    5.479452050E-04
    657        1      736    5.479452050E-04
    658        1      737    5.479452050E-04
    659        1      738    5.479452050E-04
    660        1      739    5.479452050E-04
    661        1      740    5.479452050E-04
    662        1      741    5.479452050E-04
    663        1      742    5.479452050E-04
    664        1      743    5.479452050E-04
    665        1      744    5.479452050E-04
    666        1      745    5.479452050E-04
    667        1      746    5.479452050E-04
    668        1      749    5.479452050E-04
    669        1      750    5.479452050E-04
    670        1      751    5.479452050E-04
    671        1      752    5.479452050E-04
    672        1      753    5.479452050E-04
    673        1      754    5.479452050E-04
    674        1      755    5.479452050E-04
    675        1      756    5.479452050E-04
    676        1      757    5.479452050E-04
    677        1      758    5.479452050E-04
    678        1      759    5.479452050E-04
    679        1      760    5.479452050E-04
    680        1      761    5.479452050E-04
    681        1      762    5.479452050E-04
    682        1      763    5.479452050E-04
    683        1      764    5.479452050E-04
    684        1      765    5.479452050E-04
    685        1      766    5.479452050E-04
    686        1      767    5.479452050E-04
    687        1      768    5.479452050E-04
    688        1      769    5.479452050E-04
    689        1      770    5.479452050E-04
    690        1      771    5.479452050E-04
    691        1      772    5.479452050E-04
    692        1      773    5.479452050E-04
    693        1      774    5.479452050E-04
    694        1      775    5.479452050E-04
    695        1      776    5.479452050E-04
    696        1      777    5.479452050E-04
    697        1      778    5.479452050E-04
    698        1      779    5.479452050E-04
    699        1      780    5.479452050E-04
    700        1      781    5.479452050E-04
    701        1      782    5.479452050E-04
    702        1      783    5.479452050E-04
    703        1      784    5.479452050E-04
    704        1      785    5.479452050E-04
    705        1      786    5.479452050E-04
    706        1      787    5.479452050E-04
    707        1      788    5.479452050E-04
    708        1      789    5.479452050E-04
    709        1      790    5.479452050E-04
    710        1      791    5.479452050E-04
    711        1      792    5.479452050E-04
    712        1      793    5.479452050E-04
    713        1      794    5.479452050E-04
    714        1      795    5.479452050E-04
    715        1      796    5.479452050E-04
    716        1      797    5.479452050E-04
    717        1      798    5.479452050E-04
    718        1      799    5.479452050E-04
    719        1      800    5.479452050E-04
    720        1      801    5.479452050E-04
    721        1      802    5.479452050E-04
    722        1      803    5.479452050E-04
    723        1      804    5.479452050E-04
    724        1      805    5.479452050E-04
    725        1      806    5.479452050E-04
    726        1      807    5.479452050E-04
    727        1      808    5.479452050E-04
    728        1      809    5.479452050E-04
    729        1      810    5.479452050E-04
    730        1      811    5.479452050E-04
    731        1      812    5.479452050E-04
    732        1      813    5.479452050E-04
    733        1      814    5.479452050E-04
    734        1      815    5.479452050E-04
    735        1      816    5.479452050E-04
    736        1      817    5.479452050E-04
    737        1      818    5.479452050E-04
    738        1      819    5.479452050E-04
    739        1      820    5.479452050E-04
    740        1      821    5.479452050E-04
    741        1      822    5.479452050E-04
    742        1      823    5.479452050E-04
    743        1      824    5.479452050E-04
    744        1      825    5.479452050E-04
    745        1      826    5.479452050E-04
    746        1      827    5.479452050E-04
    747        1      828    5.479452050E-04
    748        1      829    5.479452050E-04
    749        1      832    5.479452050E-04
    750        1      833    5.479452050E-04
    751        1      834    5.479452050E-04
    752        1      835    5.479452050E-04
    753        1      836    5.479452050E-04
    754        1      837    5.479452050E-04
    755        1      838    5.479452050E-04
    756        1      839    5.479452050E-04
    757        1      840    5.479452050E-04
    758        1      841    5.479452050E-04
    759        1      842    5.479452050E-04
    760        1      843    5.479452050E-04
    761        1      844    5.479452050E-04
    762        1      845    5.479452050E-04
    763        1      846    5.479452050E-04
    764        1      847    5.479452050E-04
    765        1      848    5.479452050E-04
    766        1      849    5.479452050E-04
    767        1      850    5.479452050E-04
    768        1      851    5.479452050E-04
    769        1      852    5.479452050E-04
    770        1      853    5.479452050E-04
    771        1      854    5.479452050E-04
    772        1      855    5.479452050E-04
    773        1      856    5.479452050E-04
    774        1      857    5.479452050E-04
    775        1      858    5.479452050E-04
    776        1      859    5.479452050E-04
    777        1      860    5.479452050E-04
    778        1      861    5.479452050E-04
    779        1      862    5.479452050E-04
    780        1      863    5.479452050E-04
    781        1      864    5.479452050E-04
    782        1      865    5.479452050E-04
    783        1      866    5.479452050E-04
    784        1      867    5.479452050E-04
    785        1      868    5.479452050E-04
    786        1      869    5.479452050E-04
    787        1      870    5.479452050E-04
    788        1      871    5.479452050E-04
    789        1      872    5.479452050E-04
    790        1      873    5.479452050E-04
    791        1      874    5.479452050E-04
    792        1      875    5.479452050E-04
    793        1      876    5.479452050E-04
    794        1      877    5.479452050E-04
    795        1      878    5.479452050E-04
    796        1      879    5.479452050E-04
    797        1      880    5.479452050E-04
    798        1      881    5.479452050E-04
    799        1      882    5.479452050E-04
    800        1      883    5.479452050E-04
    801        1      884    5.479452050E-04
    802        1      885    5.479452050E-04
    803        1      886    5.479452050E-04
    804        1      887    5.479452050E-04
    805        1      888    5.479452050E-04
    806        1      889    5.479452050E-04
    807        1      890    5.479452050E-04
    808        1      891    5.479452050E-04
    809        1      892    5.479452050E-04
    810        1      893    5.479452050E-04
    811        1      894    5.479452050E-04
    812        1      895    5.479452050E-04
    813        1      896    5.479452050E-04
    814        1      897    5.479452050E-04
    815        1      898    5.479452050E-04
    816        1      899    5.479452050E-04
    817        1      900    5.479452050E-04
    818        1      901    5.479452050E-04
    819        1      902    5.479452050E-04
    820        1      903    5.479452050E-04
    821        1      904    5.479452050E-04
    822        1      905    5.479452050E-04
    823        1      906    5.479452050E-04
    824        1      907    5.479452050E-04
    825        1      908    5.479452050E-04
    826        1      909    5.479452050E-04
    827        1      910    5.479452050E-04
    828        1      911    5.479452050E-04
    829        1      912    5.479452050E-04
    830        1      915    5.479452050E-04
    831        1      916    5.479452050E-04
    832        1      917    5.479452050E-04
    833        1      918    5.479452050E-04
    834        1      919    5.479452050E-04
    835        1      920    5.479452050E-04
    836        1      921    5.479452050E-04
    837        1      922    5.479452050E-04
    838        1      923    5.479452050E-04
    839        1      924    5.479452050E-04
    840        1      925    5.479452050E-04
    841        1      926    5.479452050E-04
    842        1      927    5.479452050E-04
    843        1      928    5.479452050E-04
    844        1      929    5.479452050E-04
    845        1      930    5.479452050E-04
    846        1      931    5.479452050E-04
    847        1      932    5.479452050E-04
    848        1      933    5.479452050E-04
    849        1      934    5.479452050E-04
    850        1      935    5.479452050E-04
    851        1      936    5.479452050E-04
    852        1      937    5.479452050E-04
    853        1      938    5.479452050E-04
    854        1      939    5.479452050E-04
    855        1      940    5.479452050E-04
    856        1      941    5.479452050E-04
    857        1      942    5.479452050E-04
    858        1      943    5.479452050E-04
    859        1      944    5.479452050E-04
    860        1      945    5.479452050E-04
    861        1      946    5.479452050E-04
    862        1      947    5.479452050E-04
    863        1      948    5.479452050E-04
    864        1      949    5.479452050E-04
    865        1      950    5.479452050E-04
    866        1      951    5.479452050E-04
    867        1      952    5.479452050E-04
    868        1      953    5.479452050E-04
    869        1      954    5.479452050E-04
    870        1      955    5.479452050E-04
    871        1      956    5.479452050E-04
    872        1      957    5.479452050E-04
    873        1      958    5.479452050E-04
    874        1      959    5.479452050E-04
    875        1      960    5.479452050E-04
    876        1      961    5.479452050E-04
    877        1      962    5.479452050E-04
    878        1      963    5.479452050E-04
    879        1      964    5.479452050E-04
    880        1      965    5.479452050E-04
    881        1      966    5.479452050E-04
    882        1      967    5.479452050E-04
    883        1      968    5.479452050E-04
    884        1      969    5.479452050E-04
    885        1      970    5.479452050E-04
    886        1      971    5.479452050E-04
    887        1      972    5.479452050E-04
    888        1      973    5.479452050E-04
    889        1      974    5.479452050E-04
    890        1      975    5.479452050E-04
    891        1      976    5.479452050E-04
    892        1      977    5.479452050E-04
    893        1      978    5.479452050E-04
    894        1      979    5.479452050E-04
    895        1      980    5.479452050E-04
    896        1      981    5.479452050E-04
    897        1      982    5.479452050E-04
    898        1      983    5.479452050E-04
    899        1      984    5.479452050E-04
    900        1      985    5.479452050E-04
    901        1      986    5.479452050E-04
    902        1      987    5.479452050E-04
    903        1      988    5.479452050E-04
    904        1      989    5.479452050E-04
    905        1      990    5.479452050E-04
    906        1      991    5.479452050E-04
    907        1      992    5.479452050E-04
    908        1      993    5.479452050E-04
    909        1      994    5.479452050E-04
    910        1      995    5.479452050E-04
    911        1      998    5.479452050E-04
    912        1      999    5.479452050E-04
    913        1     1000    5.479452050E-04
    914        1     1001    5.479452050E-04
    915        1     1002    5.479452050E-04
    916        1     1003    5.479452050E-04
    917        1     1004    5.479452050E-04
    918        1     1005    5.479452050E-04
    919        1     1006    5.479452050E-04
    920        1     1007    5.479452050E-04
    921        1     1008    5.479452050E-04
    922        1     1009    5.479452050E-04
    923        1     1010    5.479452050E-04
    924        1     1011    5.479452050E-04
    925        1     1012    5.479452050E-04
    926        1     1013    5.479452050E-04
    927        1     1014    5.479452050E-04
    928        1     1015    5.479452050E-04
    929        1     1016    5.479452050E-04
    930        1     1017    5.479452050E-04
    931        1     1018    5.479452050E-04
    932        1     1019    5.479452050E-04
    933        1     1020    5.479452050E-04
    934        1     1021    5.479452050E-04
    935        1     1022    5.479452050E-04
    936        1     1023    5.479452050E-04
    937        1     1024    5.479452050E-04
    938        1     1025    5.479452050E-04
    939        1     1026    5.479452050E-04
    940        1     1027    5.479452050E-04
    941        1     1028    5.479452050E-04
    942        1     1029    5.479452050E-04
    943        1     1030    5.479452050E-04
    944        1     1031    5.479452050E-04
    945        1     1032    5.479452050E-04
    946        1     1033    5.479452050E-04
    947        1     1034    5.479452050E-04
    948        1     1035    5.479452050E-04
    949        1     1036    5.479452050E-04
    950        1     1037    5.479452050E-04
    951        1     1038    5.479452050E-04
    952        1     1039    5.479452050E-04
    953        1     1040    5.479452050E-04
    954        1     1041    5.479452050E-04
    955        1     1042    5.479452050E-04
    956        1     1043    5.479452050E-04
    957        1     1044    5.479452050E-04
    958        1     1045    5.479452050E-04
    959        1     1046    5.479452050E-04
    960        1     1047    5.479452050E-04
    961        1     1048    5.479452050E-04
    962        1     1049    5.479452050E-04
    963        1     1050    5.479452050E-04
    964        1     1051    5.479452050E-04
    965        1     1052    5.479452050E-04
    966        1     1053    5.479452050E-04
    967        1     1054    5.479452050E-04
    968        1     1055    5.479452050E-04
    969        1     1056    5.479452050E-04
    970        1     1057    5.479452050E-04
    971        1     1058    5.479452050E-04
    972        1     1059    5.479452050E-04
    973        1     1060    5.479452050E-04
    974        1     1061    5.479452050E-04
    975        1     1062    5.479452050E-04
    976        1     1063    5.479452050E-04
    977        1     1064    5.479452050E-04
    978        1     1065    5.479452050E-04
    979        1     1066    5.479452050E-04
    980        1     1067    5.479452050E-04
    981        1     1068    5.479452050E-04
    982        1     1069    5.479452050E-04
    983        1     1070    5.479452050E-04
    984        1     1071    5.479452050E-04
    985        1     1072    5.479452050E-04
    986        1     1073    5.479452050E-04
    987        1     1074    5.479452050E-04
    988        1     1075    5.479452050E-04
    989        1     1078    5.479452050E-04
    990        1     1079    5.479452050E-04
    991        1     1080    5.479452050E-04
    992        1     1081    5.479452050E-04
    993        1     1082    5.479452050E-04
    994        1     1083    5.479452050E-04
    995        1     1084    5.479452050E-04
    996        1     1085    5.479452050E-04
    997        1     1086    5.479452050E-04
    998        1     1087    5.479452050E-04
    999        1     1088    5.479452050E-04
    1000       1     1089    5.479452050E-04
    1001       1     1090    5.479452050E-04
    1002       1     1091    5.479452050E-04
    1003       1     1092    5.479452050E-04
    1004       1     1093    5.479452050E-04
    1005       1     1094    5.479452050E-04
    1006       1     1095    5.479452050E-04
    1007       1     1096    5.479452050E-04
    1008       1     1097    5.479452050E-04
    1009       1     1098    5.479452050E-04
    1010       1     1099    5.479452050E-04
    1011       1     1100    5.479452050E-04
    1012       1     1101    5.479452050E-04
    1013       1     1102    5.479452050E-04
    1014       1     1103    5.479452050E-04
    1015       1     1104    5.479452050E-04
    1016       1     1105    5.479452050E-04
    1017       1     1106    5.479452050E-04
    1018       1     1107    5.479452050E-04
    1019       1     1108    5.479452050E-04
    1020       1     1109    5.479452050E-04
    1021       1     1110    5.479452050E-04
    1022       1     1111    5.479452050E-04
    1023       1     1112    5.479452050E-04
    1024       1     1113    5.479452050E-04
    1025       1     1114    5.479452050E-04
    1026       1     1115    5.479452050E-04
    1027       1     1116    5.479452050E-04
    1028       1     1117    5.479452050E-04
    1029       1     1118    5.479452050E-04
    1030       1     1119    5.479452050E-04
    1031       1     1120    5.479452050E-04
    1032       1     1121    5.479452050E-04
    1033       1     1122    5.479452050E-04
    1034       1     1123    5.479452050E-04
    1035       1     1124    5.479452050E-04
    1036       1     1125    5.479452050E-04
    1037       1     1126    5.479452050E-04
    1038       1     1127    5.479452050E-04
    1039       1     1128    5.479452050E-04
    1040       1     1129    5.479452050E-04
    1041       1     1130    5.479452050E-04
    1042       1     1131    5.479452050E-04
    1043       1     1132    5.479452050E-04
    1044       1     1133    5.479452050E-04
    1045       1     1134    5.479452050E-04
    1046       1     1135    5.479452050E-04
    1047       1     1136    5.479452050E-04
    1048       1     1137    5.479452050E-04
    1049       1     1138    5.479452050E-04
    1050       1     1139    5.479452050E-04
    1051       1     1140    5.479452050E-04
    1052       1     1141    5.479452050E-04
    1053       1     1142    5.479452050E-04
    1054       1     1143    5.479452050E-04
    1055       1     1144    5.479452050E-04
    1056       1     1145    5.479452050E-04
    1057       1     1146    5.479452050E-04
    1058       1     1147    5.479452050E-04
    1059       1     1148    5.479452050E-04
    1060       1     1149    5.479452050E-04
    1061       1     1150    5.479452050E-04
    1062       1     1151    5.479452050E-04
    1063       1     1152    5.479452050E-04
    1064       1     1153    5.479452050E-04
    1065       1     1154    5.479452050E-04
    1066       1     1155    5.479452050E-04
    1067       1     1158    5.479452050E-04
    1068       1     1159    5.479452050E-04
    1069       1     1160    5.479452050E-04
    1070       1     1161    5.479452050E-04
    1071       1     1162    5.479452050E-04
    1072       1     1163    5.479452050E-04
    1073       1     1164    5.479452050E-04
    1074       1     1165    5.479452050E-04
    1075       1     1166    5.479452050E-04
    1076       1     1167    5.479452050E-04
    1077       1     1168    5.479452050E-04
    1078       1     1169    5.479452050E-04
    1079       1     1170    5.479452050E-04
    1080       1     1171    5.479452050E-04
    1081       1     1172    5.479452050E-04
    1082       1     1173    5.479452050E-04
    1083       1     1174    5.479452050E-04
    1084       1     1175    5.479452050E-04
    1085       1     1176    5.479452050E-04
    1086       1     1177    5.479452050E-04
    1087       1     1178    5.479452050E-04
    1088       1     1179    5.479452050E-04
    1089       1     1180    5.479452050E-04
    1090       1     1181    5.479452050E-04
    1091       1     1182    5.479452050E-04
    1092       1     1183    5.479452050E-04
    1093       1     1184    5.479452050E-04
    1094       1     1185    5.479452050E-04
    1095       1     1186    5.479452050E-04
    1096       1     1187    5.479452050E-04
    1097       1     1188    5.479452050E-04
    1098       1     1189    5.479452050E-04
    1099       1     1190    5.479452050E-04
    1100       1     1191    5.479452050E-04
    1101       1     1192    5.479452050E-04
    1102       1     1193    5.479452050E-04
    1103       1     1194    5.479452050E-04
    1104       1     1195    5.479452050E-04
    1105       1     1196    5.479452050E-04
    1106       1     1197    5.479452050E-04
    1107       1     1198    5.479452050E-04
    1108       1     1199    5.479452050E-04
    1109       1     1200    5.479452050E-04
    1110       1     1201    5.479452050E-04
    1111       1     1202    5.479452050E-04
    1112       1     1203    5.479452050E-04
    1113       1     1204    5.479452050E-04
    1114       1     1205    5.479452050E-04
    1115       1     1206    5.479452050E-04
    1116       1     1207    5.479452050E-04
    1117       1     1208    5.479452050E-04
    1118       1     1209    5.479452050E-04
    1119       1     1210    5.479452050E-04
    1120       1     1211    5.479452050E-04
    1121       1     1212    5.479452050E-04
    1122       1     1213    5.479452050E-04
    1123       1     1214    5.479452050E-04
    1124       1     1215    5.479452050E-04
    1125       1     1216    5.479452050E-04
    1126       1     1217    5.479452050E-04
    1127       1     1218    5.479452050E-04
    1128       1     1219    5.479452050E-04
    1129       1     1220    5.479452050E-04
    1130       1     1221    5.479452050E-04
    1131       1     1222    5.479452050E-04
    1132       1     1223    5.479452050E-04
    1133       1     1224    5.479452050E-04
    1134       1     1225    5.479452050E-04
    1135       1     1226    5.479452050E-04
    1136       1     1227    5.479452050E-04
    1137       1     1228    5.479452050E-04
    1138       1     1229    5.479452050E-04
    1139       1     1230    5.479452050E-04
    1140       1     1231    5.479452050E-04
    1141       1     1232    5.479452050E-04
    1142       1     1233    5.479452050E-04
    1143       1     1234    5.479452050E-04
    1144       1     1235    5.479452050E-04
    1145       1     1236    5.479452050E-04
    1146       1     1237    5.479452050E-04
    1147       1     1238    5.479452050E-04
    1148       1     1241    5.479452050E-04
    1149       1     1242    5.479452050E-04
    1150       1     1243    5.479452050E-04
    1151       1     1244    5.479452050E-04
    1152       1     1245    5.479452050E-04
    1153       1     1246    5.479452050E-04
    1154       1     1247    5.479452050E-04
    1155       1     1248    5.479452050E-04
    1156       1     1249    5.479452050E-04
    1157       1     1250    5.479452050E-04
    1158       1     1251    5.479452050E-04
    1159       1     1252    5.479452050E-04
    1160       1     1253    5.479452050E-04
    1161       1     1254    5.479452050E-04
    1162       1     1255    5.479452050E-04
    1163       1     1256    5.479452050E-04
    1164       1     1257    5.479452050E-04
    1165       1     1258    5.479452050E-04
    1166       1     1259    5.479452050E-04
    1167       1     1260    5.479452050E-04
    1168       1     1261    5.479452050E-04
    1169       1     1262    5.479452050E-04
    1170       1     1263    5.479452050E-04
    1171       1     1264    5.479452050E-04
    1172       1     1265    5.479452050E-04
    1173       1     1266    5.479452050E-04
    1174       1     1267    5.479452050E-04
    1175       1     1268    5.479452050E-04
    1176       1     1269    5.479452050E-04
    1177       1     1270    5.479452050E-04
    1178       1     1271    5.479452050E-04
    1179       1     1272    5.479452050E-04
    1180       1     1273    5.479452050E-04
    1181       1     1274    5.479452050E-04
    1182       1     1275    5.479452050E-04
    1183       1     1276    5.479452050E-04
    1184       1     1277    5.479452050E-04
    1185       1     1278    5.479452050E-04
    1186       1     1279    5.479452050E-04
    1187       1     1280    5.479452050E-04
    1188       1     1281    5.479452050E-04
    1189       1     1282    5.479452050E-04
    1190       1     1283    5.479452050E-04
    1191       1     1284    5.479452050E-04
    1192       1     1285    5.479452050E-04
    1193       1     1286    5.479452050E-04
    1194       1     1287    5.479452050E-04
    1195       1     1288    5.479452050E-04
    1196       1     1289    5.479452050E-04
    1197       1     1290    5.479452050E-04
    1198       1     1291    5.479452050E-04
    1199       1     1292    5.479452050E-04
    1200       1     1293    5.479452050E-04
    1201       1     1294    5.479452050E-04
    1202       1     1295    5.479452050E-04
    1203       1     1296    5.479452050E-04
    1204       1     1297    5.479452050E-04
    1205       1     1298    5.479452050E-04
    1206       1     1299    5.479452050E-04
    1207       1     1300    5.479452050E-04
    1208       1     1301    5.479452050E-04
    1209       1     1302    5.479452050E-04
    1210       1     1303    5.479452050E-04
    1211       1     1304    5.479452050E-04
    1212       1     1305    5.479452050E-04
    1213       1     1306    5.479452050E-04
    1214       1     1307    5.479452050E-04
    1215       1     1308    5.479452050E-04
    1216       1     1309    5.479452050E-04
    1217       1     1310    5.479452050E-04
    1218       1     1311    5.479452050E-04
    1219       1     1312    5.479452050E-04
    1220       1     1313    5.479452050E-04
    1221       1     1314    5.479452050E-04
    1222       1     1315    5.479452050E-04
    1223       1     1316    5.479452050E-04
    1224       1     1317    5.479452050E-04
    1225       1     1318    5.479452050E-04
    1226       1     1320    5.479452050E-04
    1227       1     1321    5.479452050E-04
    1228       1     1322    5.479452050E-04
    1229       1     1323    5.479452050E-04
    1230       1     1324    5.479452050E-04
    1231       1     1325    5.479452050E-04
    1232       1     1326    5.479452050E-04
    1233       1     1327    5.479452050E-04
    1234       1     1328    5.479452050E-04
    1235       1     1329    5.479452050E-04
    1236       1     1330    5.479452050E-04
    1237       1     1331    5.479452050E-04
    1238       1     1332    5.479452050E-04
    1239       1     1333    5.479452050E-04
    1240       1     1334    5.479452050E-04
    1241       1     1335    5.479452050E-04
    1242       1     1336    5.479452050E-04
    1243       1     1337    5.479452050E-04
    1244       1     1338    5.479452050E-04
    1245       1     1339    5.479452050E-04
    1246       1     1340    5.479452050E-04
    1247       1     1341    5.479452050E-04
    1248       1     1342    5.479452050E-04
    1249       1     1343    5.479452050E-04
    1250       1     1344    5.479452050E-04
    1251       1     1345    5.479452050E-04
    1252       1     1346    5.479452050E-04
    1253       1     1347    5.479452050E-04
    1254       1     1348    5.479452050E-04
    1255       1     1349    5.479452050E-04
    1256       1     1350    5.479452050E-04
    1257       1     1351    5.479452050E-04
    1258       1     1352    5.479452050E-04
    1259       1     1353    5.479452050E-04
    1260       1     1354    5.479452050E-04
    1261       1     1355    5.479452050E-04
    1262       1     1356    5.479452050E-04
    1263       1     1357    5.479452050E-04
    1264       1     1358    5.479452050E-04
    1265       1     1359    5.479452050E-04
    1266       1     1360    5.479452050E-04
    1267       1     1361    5.479452050E-04
    1268       1     1362    5.479452050E-04
    1269       1     1363    5.479452050E-04
    1270       1     1364    5.479452050E-04
    1271       1     1365    5.479452050E-04
    1272       1     1366    5.479452050E-04
    1273       1     1367    5.479452050E-04
    1274       1     1368    5.479452050E-04
    1275       1     1369    5.479452050E-04
    1276       1     1370    5.479452050E-04
    1277       1     1371    5.479452050E-04
    1278       1     1372    5.479452050E-04
    1279       1     1373    5.479452050E-04
    1280       1     1374    5.479452050E-04
    1281       1     1375    5.479452050E-04
    1282       1     1376    5.479452050E-04
    1283       1     1377    5.479452050E-04
    1284       1     1378    5.479452050E-04
    1285       1     1379    5.479452050E-04
    1286       1     1380    5.479452050E-04
    1287       1     1381    5.479452050E-04
    1288       1     1382    5.479452050E-04
    1289       1     1383    5.479452050E-04
    1290       1     1384    5.479452050E-04
    1291       1     1385    5.479452050E-04
    1292       1     1386    5.479452050E-04
    1293       1     1387    5.479452050E-04
    1294       1     1388    5.479452050E-04
    1295       1     1389    5.479452050E-04
    1296       1     1390    5.479452050E-04
    1297       1     1391    5.479452050E-04
    1298       1     1392    5.479452050E-04
    1299       1     1393    5.479452050E-04
    1300       1     1394    5.479452050E-04
    1301       1     1395    5.479452050E-04
    1302       1     1396    5.479452050E-04
    1303       1     1397    5.479452050E-04
    1304       1     1400    5.479452050E-04
    1305       1     1401    5.479452050E-04
    1306       1     1402    5.479452050E-04
    1307       1     1403    5.479452050E-04
    1308       1     1404    5.479452050E-04
    1309       1     1405    5.479452050E-04
    1310       1     1406    5.479452050E-04
    1311       1     1407    5.479452050E-04
    1312       1     1408    5.479452050E-04
    1313       1     1409    5.479452050E-04
    1314       1     1410    5.479452050E-04
    1315       1     1411    5.479452050E-04
    1316       1     1412    5.479452050E-04
    1317       1     1413    5.479452050E-04
    1318       1     1414    5.479452050E-04
    1319       1     1415    5.479452050E-04
    1320       1     1416    5.479452050E-04
    1321       1     1417    5.479452050E-04
    1322       1     1418    5.479452050E-04
    1323       1     1419    5.479452050E-04
    1324       1     1420    5.479452050E-04
    1325       1     1421    5.479452050E-04
    1326       1     1422    5.479452050E-04
    1327       1     1423    5.479452050E-04
    1328       1     1424    5.479452050E-04
    1329       1     1425    5.479452050E-04
    1330       1     1426    5.479452050E-04
    1331       1     1427    5.479452050E-04
    1332       1     1428    5.479452050E-04
    1333       1     1429    5.479452050E-04
    1334       1     1430    5.479452050E-04
    1335       1     1431    5.479452050E-04
    1336       1     1432    5.479452050E-04
    1337       1     1433    5.479452050E-04
    1338       1     1434    5.479452050E-04
    1339       1     1435    5.479452050E-04
    1340       1     1436    5.479452050E-04
    1341       1     1437    5.479452050E-04
    1342       1     1438    5.479452050E-04
    1343       1     1439    5.479452050E-04
    1344       1     1440    5.479452050E-04
    1345       1     1441    5.479452050E-04
    1346       1     1442    5.479452050E-04
    1347       1     1443    5.479452050E-04
    1348       1     1444    5.479452050E-04
    1349       1     1445    5.479452050E-04
    1350       1     1446    5.479452050E-04
    1351       1     1447    5.479452050E-04
    1352       1     1448    5.479452050E-04
    1353       1     1449    5.479452050E-04
    1354       1     1450    5.479452050E-04
    1355       1     1451    5.479452050E-04
    1356       1     1452    5.479452050E-04
    1357       1     1453    5.479452050E-04
    1358       1     1454    5.479452050E-04
    1359       1     1455    5.479452050E-04
    1360       1     1456    5.479452050E-04
    1361       1     1457    5.479452050E-04
    1362       1     1458    5.479452050E-04
    1363       1     1459    5.479452050E-04
    1364       1     1460    5.479452050E-04
    1365       1     1461    5.479452050E-04
    1366       1     1462    5.479452050E-04
    1367       1     1463    5.479452050E-04
    1368       1     1464    5.479452050E-04
    1369       1     1465    5.479452050E-04
    1370       1     1466    5.479452050E-04
    1371       1     1467    5.479452050E-04
    1372       1     1468    5.479452050E-04
    1373       1     1469    5.479452050E-04
    1374       1     1470    5.479452050E-04
    1375       1     1471    5.479452050E-04
    1376       1     1472    5.479452050E-04
    1377       1     1473    5.479452050E-04
    1378       1     1474    5.479452050E-04
    1379       1     1475    5.479452050E-04
    1380       1     1476    5.479452050E-04
    1381       1     1477    5.479452050E-04
    1382       1     1478    5.479452050E-04
    1383       1     1479    5.479452050E-04
    1384       1     1480    5.479452050E-04
    1385       1     1481    5.479452050E-04
    1386       1     1482    5.479452050E-04
    1387       1     1483    5.479452050E-04
    1388       1     1484    5.479452050E-04
    1389       1     1487    5.479452050E-04
    1390       1     1488    5.479452050E-04
    1391       1     1489    5.479452050E-04
    1392       1     1490    5.479452050E-04
    1393       1     1491    5.479452050E-04
    1394       1     1492    5.479452050E-04
    1395       1     1493    5.479452050E-04
    1396       1     1494    5.479452050E-04
    1397       1     1495    5.479452050E-04
    1398       1     1496    5.479452050E-04
    1399       1     1497    5.479452050E-04
    1400       1     1498    5.479452050E-04
    1401       1     1499    5.479452050E-04
    1402       1     1500    5.479452050E-04
    1403       1     1501    5.479452050E-04
    1404       1     1502    5.479452050E-04
    1405       1     1503    5.479452050E-04
    1406       1     1504    5.479452050E-04
    1407       1     1505    5.479452050E-04
    1408       1     1506    5.479452050E-04
    1409       1     1507    5.479452050E-04
    1410       1     1508    5.479452050E-04
    1411       1     1509    5.479452050E-04
    1412       1     1510    5.479452050E-04
    1413       1     1511    5.479452050E-04
    1414       1     1512    5.479452050E-04
    1415       1     1513    5.479452050E-04
    1416       1     1514    5.479452050E-04
    1417       1     1515    5.479452050E-04
    1418       1     1516    5.479452050E-04
    1419       1     1517    5.479452050E-04
    1420       1     1518    5.479452050E-04
    1421       1     1519    5.479452050E-04
    1422       1     1520    5.479452050E-04
    1423       1     1521    5.479452050E-04
    1424       1     1522    5.479452050E-04
    1425       1     1523    5.479452050E-04
    1426       1     1524    5.479452050E-04
    1427       1     1525    5.479452050E-04
    1428       1     1526    5.479452050E-04
    1429       1     1527    5.479452050E-04
    1430       1     1528    5.479452050E-04
    1431       1     1529    5.479452050E-04
    1432       1     1530    5.479452050E-04
    1433       1     1531    5.479452050E-04
    1434       1     1532    5.479452050E-04
    1435       1     1533    5.479452050E-04
    1436       1     1534    5.479452050E-04
    1437       1     1535    5.479452050E-04
    1438       1     1536    5.479452050E-04
    1439       1     1537    5.479452050E-04
    1440       1     1538    5.479452050E-04
    1441       1     1539    5.479452050E-04
    1442       1     1540    5.479452050E-04
    1443       1     1541    5.479452050E-04
    1444       1     1542    5.479452050E-04
    1445       1     1543    5.479452050E-04
    1446       1     1544    5.479452050E-04
    1447       1     1545    5.479452050E-04
    1448       1     1546    5.479452050E-04
    1449       1     1547    5.479452050E-04
    1450       1     1548    5.479452050E-04
    1451       1     1549    5.479452050E-04
    1452       1     1550    5.479452050E-04
    1453       1     1551    5.479452050E-04
    1454       1     1552    5.479452050E-04
    1455       1     1553    5.479452050E-04
    1456       1     1554    5.479452050E-04
    1457       1     1555    5.479452050E-04
    1458       1     1556    5.479452050E-04
    1459       1     1557    5.479452050E-04
    1460       1     1558    5.479452050E-04
    1461       1     1559    5.479452050E-04
    1462       1     1560    5.479452050E-04
    1463       1     1561    5.479452050E-04
    1464       1     1562    5.479452050E-04
    1465       1     1563    5.479452050E-04
    1466       1     1564    5.479452050E-04
    1467       1     1565    5.479452050E-04
    1468       1     1566    5.479452050E-04
    1469       1     1567    5.479452050E-04
    1470       1     1568    5.479452050E-04
    1471       1     1569    5.479452050E-04
    1472       1     1570    5.479452050E-04
    1473       1     1571    5.479452050E-04
    1474       1     1572    5.479452050E-04
    1475       1     1573    5.479452050E-04
    1476       1     1574    5.479452050E-04
    1477       1     1575    5.479452050E-04
    1478       1     1576    5.479452050E-04
    1479       1     1577    5.479452050E-04
    1480       1     1578    5.479452050E-04
    1481       1     1579    5.479452050E-04
    1482       1     1582    5.479452050E-04
    1483       1     1583    5.479452050E-04
    1484       1     1584    5.479452050E-04
    1485       1     1585    5.479452050E-04
    1486       1     1586    5.479452050E-04
    1487       1     1587    5.479452050E-04
    1488       1     1588    5.479452050E-04
    1489       1     1589    5.479452050E-04
    1490       1     1590    5.479452050E-04
    1491       1     1591    5.479452050E-04
    1492       1     1592    5.479452050E-04
    1493       1     1593    5.479452050E-04
    1494       1     1594    5.479452050E-04
    1495       1     1595    5.479452050E-04
    1496       1     1596    5.479452050E-04
    1497       1     1597    5.479452050E-04
    1498       1     1598    5.479452050E-04
    1499       1     1599    5.479452050E-04
    1500       1     1600    5.479452050E-04
    1501       1     1601    5.479452050E-04
    1502       1     1602    5.479452050E-04
    1503       1     1603    5.479452050E-04
    1504       1     1604    5.479452050E-04
    1505       1     1605    5.479452050E-04
    1506       1     1606    5.479452050E-04
    1507       1     1607    5.479452050E-04
    1508       1     1608    5.479452050E-04
    1509       1     1609    5.479452050E-04
    1510       1     1610    5.479452050E-04
    1511       1     1611    5.479452050E-04
    1512       1     1612    5.479452050E-04
    1513       1     1613    5.479452050E-04
    1514       1     1614    5.479452050E-04
    1515       1     1615    5.479452050E-04
    1516       1     1616    5.479452050E-04
    1517       1     1617    5.479452050E-04
    1518       1     1618    5.479452050E-04
    1519       1     1619    5.479452050E-04
    1520       1     1620    5.479452050E-04
    1521       1     1621    5.479452050E-04
    1522       1     1622    5.479452050E-04
    1523       1     1623    5.479452050E-04
    1524       1     1624    5.479452050E-04
    1525       1     1625    5.479452050E-04
    1526       1     1626    5.479452050E-04
    1527       1     1627    5.479452050E-04
    1528       1     1628    5.479452050E-04
    1529       1     1629    5.479452050E-04
    1530       1     1630    5.479452050E-04
    1531       1     1631    5.479452050E-04
    1532       1     1632    5.479452050E-04
    1533       1     1633    5.479452050E-04
    1534       1     1634    5.479452050E-04
    1535       1     1635    5.479452050E-04
    1536       1     1636    5.479452050E-04
    1537       1     1637    5.479452050E-04
    1538       1     1638    5.479452050E-04
    1539       1     1639    5.479452050E-04
    1540       1     1640    5.479452050E-04
    1541       1     1641    5.479452050E-04
    1542       1     1642    5.479452050E-04
    1543       1     1643    5.479452050E-04
    1544       1     1644    5.479452050E-04
    1545       1     1645    5.479452050E-04
    1546       1     1646    5.479452050E-04
    1547       1     1647    5.479452050E-04
    1548       1     1648    5.479452050E-04
    1549       1     1649    5.479452050E-04
    1550       1     1650    5.479452050E-04
    1551       1     1651    5.479452050E-04
    1552       1     1652    5.479452050E-04
    1553       1     1653    5.479452050E-04
    1554       1     1654    5.479452050E-04
    1555       1     1655    5.479452050E-04
    1556       1     1656    5.479452050E-04
    1557       1     1657    5.479452050E-04
    1558       1     1658    5.479452050E-04
    1559       1     1659    5.479452050E-04
    1560       1     1660    5.479452050E-04
    1561       1     1661    5.479452050E-04
    1562       1     1662    5.479452050E-04
    1563       1     1663    5.479452050E-04
    1564       1     1664    5.479452050E-04
    1565       1     1665    5.479452050E-04
    1566       1     1666    5.479452050E-04
    1567       1     1667    5.479452050E-04
    1568       1     1668    5.479452050E-04
    1569       1     1669    5.479452050E-04
    1570       1     1670    5.479452050E-04
    1571       1     1671    5.479452050E-04
    1572       1     1672    5.479452050E-04
    1573       1     1673    5.479452050E-04
    1574       1     1674    5.479452050E-04
    1575       1     1675    5.479452050E-04
    1576       1     1676    5.479452050E-04
    1577       1     1677    5.479452050E-04
    1578       1     1678    5.479452050E-04
    1579       1     1679    5.479452050E-04
    1580       1     1680    5.479452050E-04
    1581       1     1681    5.479452050E-04
    1582       1     1682    5.479452050E-04
    1583       1     1683    5.479452050E-04
    1584       1     1684    5.479452050E-04
    1585       1     1685    5.479452050E-04
    1586       1     1686    5.479452050E-04
    1587       1     1687    5.479452050E-04
    1588       1     1688    5.479452050E-04
    1589       1     1689    5.479452050E-04
    1590       1     1690    5.479452050E-04
    1591       1     1691    5.479452050E-04
    1592       1     1694    5.479452050E-04
    1593       1     1695    5.479452050E-04
    1594       1     1696    5.479452050E-04
    1595       1     1697    5.479452050E-04
    1596       1     1698    5.479452050E-04
    1597       1     1699    5.479452050E-04
    1598       1     1700    5.479452050E-04
    1599       1     1701    5.479452050E-04
    1600       1     1702    5.479452050E-04
    1601       1     1703    5.479452050E-04
    1602       1     1704    5.479452050E-04
    1603       1     1705    5.479452050E-04
    1604       1     1706    5.479452050E-04
    1605       1     1707    5.479452050E-04
    1606       1     1708    5.479452050E-04
    1607       1     1709    5.479452050E-04
    1608       1     1710    5.479452050E-04
    1609       1     1711    5.479452050E-04
    1610       1     1712    5.479452050E-04
    1611       1     1713    5.479452050E-04
    1612       1     1714    5.479452050E-04
    1613       1     1715    5.479452050E-04
    1614       1     1716    5.479452050E-04
    1615       1     1717    5.479452050E-04
    1616       1     1718    5.479452050E-04
    1617       1     1719    5.479452050E-04
    1618       1     1720    5.479452050E-04
    1619       1     1721    5.479452050E-04
    1620       1     1722    5.479452050E-04
    1621       1     1723    5.479452050E-04
    1622       1     1724    5.479452050E-04
    1623       1     1725    5.479452050E-04
    1624       1     1726    5.479452050E-04
    1625       1     1727    5.479452050E-04
    1626       1     1728    5.479452050E-04
    1627       1     1729    5.479452050E-04
    1628       1     1730    5.479452050E-04
    1629       1     1731    5.479452050E-04
    1630       1     1732    5.479452050E-04
    1631       1     1733    5.479452050E-04
    1632       1     1734    5.479452050E-04
    1633       1     1735    5.479452050E-04
    1634       1     1736    5.479452050E-04
    1635       1     1737    5.479452050E-04
    1636       1     1738    5.479452050E-04
    1637       1     1739    5.479452050E-04
    1638       1     1740    5.479452050E-04
    1639       1     1741    5.479452050E-04
    1640       1     1742    5.479452050E-04
    1641       1     1743    5.479452050E-04
    1642       1     1744    5.479452050E-04
    1643       1     1745    5.479452050E-04
    1644       1     1746    5.479452050E-04
    1645       1     1747    5.479452050E-04
    1646       1     1748    5.479452050E-04
    1647       1     1749    5.479452050E-04
    1648       1     1750    5.479452050E-04
    1649       1     1751    5.479452050E-04
    1650       1     1752    5.479452050E-04
    1651       1     1753    5.479452050E-04
    1652       1     1754    5.479452050E-04
    1653       1     1755    5.479452050E-04
    1654       1     1756    5.479452050E-04
    1655       1     1757    5.479452050E-04
    1656       1     1758    5.479452050E-04
    1657       1     1759    5.479452050E-04
    1658       1     1760    5.479452050E-04
    1659       1     1761    5.479452050E-04
    1660       1     1762    5.479452050E-04
    1661       1     1763    5.479452050E-04
    1662       1     1764    5.479452050E-04
    1663       1     1765    5.479452050E-04
    1664       1     1766    5.479452050E-04
    1665       1     1767    5.479452050E-04
    1666       1     1768    5.479452050E-04
    1667       1     1769    5.479452050E-04
    1668       1     1770    5.479452050E-04
    1669       1     1771    5.479452050E-04
    1670       1     1772    5.479452050E-04
    1671       1     1773    5.479452050E-04
    1672       1     1774    5.479452050E-04
    1673       1     1775    5.479452050E-04
    1674       1     1778    5.479452050E-04
    1675       1     1779    5.479452050E-04
    1676       1     1780    5.479452050E-04
    1677       1     1781    5.479452050E-04
    1678       1     1782    5.479452050E-04
    1679       1     1783    5.479452050E-04
    1680       1     1784    5.479452050E-04
    1681       1     1785    5.479452050E-04
    1682       1     1786    5.479452050E-04
    1683       1     1787    5.479452050E-04
    1684       1     1788    5.479452050E-04
    1685       1     1789    5.479452050E-04
    1686       1     1790    5.479452050E-04
    1687       1     1791    5.479452050E-04
    1688       1     1792    5.479452050E-04
    1689       1     1793    5.479452050E-04
    1690       1     1794    5.479452050E-04
    1691       1     1795    5.479452050E-04
    1692       1     1796    5.479452050E-04
    1693       1     1797    5.479452050E-04
    1694       1     1798    5.479452050E-04
    1695       1     1799    5.479452050E-04
    1696       1     1800    5.479452050E-04
    1697       1     1801    5.479452050E-04
    1698       1     1802    5.479452050E-04
    1699       1     1803    5.479452050E-04
    1700       1     1804    5.479452050E-04
    1701       1     1805    5.479452050E-04
    1702       1     1806    5.479452050E-04
    1703       1     1807    5.479452050E-04
    1704       1     1808    5.479452050E-04
    1705       1     1809    5.479452050E-04
    1706       1     1810    5.479452050E-04
    1707       1     1811    5.479452050E-04
    1708       1     1812    5.479452050E-04
    1709       1     1813    5.479452050E-04
    1710       1     1814    5.479452050E-04
    1711       1     1815    5.479452050E-04
    1712       1     1816    5.479452050E-04
    1713       1     1817    5.479452050E-04
    1714       1     1818    5.479452050E-04
    1715       1     1819    5.479452050E-04
    1716       1     1820    5.479452050E-04
    1717       1     1821    5.479452050E-04
    1718       1     1822    5.479452050E-04
    1719       1     1823    5.479452050E-04
    1720       1     1824    5.479452050E-04
    1721       1     1825    5.479452050E-04
    1722       1     1826    5.479452050E-04
    1723       1     1827    5.479452050E-04
    1724       1     1828    5.479452050E-04
    1725       1     1829    5.479452050E-04
    1726       1     1830    5.479452050E-04
    1727       1     1831    5.479452050E-04
    1728       1     1832    5.479452050E-04
    1729       1     1833    5.479452050E-04
    1730       1     1834    5.479452050E-04
    1731       1     1835    5.479452050E-04
    1732       1     1836    5.479452050E-04
    1733       1     1837    5.479452050E-04
    1734       1     1838    5.479452050E-04
    1735       1     1839    5.479452050E-04
    1736       1     1840    5.479452050E-04
    1737       1     1841    5.479452050E-04
    1738       1     1842    5.479452050E-04
    1739       1     1843    5.479452050E-04
    1740       1     1844    5.479452050E-04
    1741       1     1845    5.479452050E-04
    1742       1     1846    5.479452050E-04
    1743       1     1847    5.479452050E-04
    1744       1     1848    5.479452050E-04
    1745       1     1849    5.479452050E-04
    1746       1     1850    5.479452050E-04
    1747       1     1851    5.479452050E-04
    1748       1     1852    5.479452050E-04
    1749       1     1855    5.479452050E-04
    1750       1     1856    5.479452050E-04
    1751       1     1857    5.479452050E-04
    1752       1     1858    5.479452050E-04
    1753       1     1859    5.479452050E-04
    1754       1     1860    5.479452050E-04
    1755       1     1861    5.479452050E-04
    1756       1     1862    5.479452050E-04
    1757       1     1863    5.479452050E-04
    1758       1     1864    5.479452050E-04
    1759       1     1865    5.479452050E-04
    1760       1     1866    5.479452050E-04
    1761       1     1867    5.479452050E-04
    1762       1     1868    5.479452050E-04
    1763       1     1869    5.479452050E-04
    1764       1     1870    5.479452050E-04
    1765       1     1871    5.479452050E-04
    1766       1     1872    5.479452050E-04
    1767       1     1873    5.479452050E-04
    1768       1     1874    5.479452050E-04
    1769       1     1875    5.479452050E-04
    1770       1     1876    5.479452050E-04
    1771       1     1877    5.479452050E-04
    1772       1     1878    5.479452050E-04
    1773       1     1879    5.479452050E-04
    1774       1     1880    5.479452050E-04
    1775       1     1881    5.479452050E-04
    1776       1     1882    5.479452050E-04
    1777       1     1883    5.479452050E-04
    1778       1     1884    5.479452050E-04
    1779       1     1885    5.479452050E-04
    1780       1     1886    5.479452050E-04
    1781       1     1887    5.479452050E-04
    1782       1     1888    5.479452050E-04
    1783       1     1889    5.479452050E-04
    1784       1     1890    5.479452050E-04
    1785       1     1891    5.479452050E-04
    1786       1     1892    5.479452050E-04
    1787       1     1893    5.479452050E-04
    1788       1     1894    5.479452050E-04
    1789       1     1895    5.479452050E-04
    1790       1     1896    5.479452050E-04
    1791       1     1897    5.479452050E-04
    1792       1     1898    5.479452050E-04
    1793       1     1899    5.479452050E-04
    1794       1     1900    5.479452050E-04
    1795       1     1901    5.479452050E-04
    1796       1     1902    5.479452050E-04
    1797       1     1903    5.479452050E-04
    1798       1     1904    5.479452050E-04
    1799       1     1905    5.479452050E-04
    1800       1     1906    5.479452050E-04
    1801       1     1907    5.479452050E-04
    1802       1     1908    5.479452050E-04
    1803       1     1909    5.479452050E-04
    1804       1     1910    5.479452050E-04
    1805       1     1911    5.479452050E-04
    1806       1     1912    5.479452050E-04
    1807       1     1913    5.479452050E-04
    1808       1     1914    5.479452050E-04
    1809       1     1915    5.479452050E-04
    1810       1     1916    5.479452050E-04
    1811       1     1917    5.479452050E-04
    1812       1     1918    5.479452050E-04
    1813       1     1919    5.479452050E-04
    1814       1     1920    5.479452050E-04
    1815       1     1921    5.479452050E-04
    1816       1     1922    5.479452050E-04
    1817       1     1923    5.479452050E-04
    1818       1     1924    5.479452050E-04
    1819       1     1925    5.479452050E-04
    1820       1     1926    5.479452050E-04
    1821       1     1927    5.479452050E-04
    1822       1     1928    5.479452050E-04
    1823       1     1931    5.479452050E-04
    1824       1     1932    5.479452050E-04
    1825       1     1933    5.479452050E-04
    1826       1     1934    5.479452050E-04
    1827       1     1935    5.479452050E-04
    1828       1     1936    5.479452050E-04
    1829       1     1937    5.479452050E-04
    1830       1     1938    5.479452050E-04
    1831       1     1939    5.479452050E-04
    1832       1     1940    5.479452050E-04
    1833       1     1941    5.479452050E-04
    1834       1     1942    5.479452050E-04
    1835       1     1943    5.479452050E-04
    1836       1     1944    5.479452050E-04
    1837       1     1945    5.479452050E-04
    1838       1     1946    5.479452050E-04
    1839       1     1947    5.479452050E-04
    1840       1     1948    5.479452050E-04
    1841       1     1949    5.479452050E-04
    1842       1     1950    5.479452050E-04
    1843       1     1951    5.479452050E-04
    1844       1     1952    5.479452050E-04
    1845       1     1953    5.479452050E-04
    1846       1     1954    5.479452050E-04
    1847       1     1955    5.479452050E-04
    1848       1     1956    5.479452050E-04
    1849       1     1957    5.479452050E-04
    1850       1     1958    5.479452050E-04
    1851       1     1959    5.479452050E-04
    1852       1     1960    5.479452050E-04
    1853       1     1961    5.479452050E-04
    1854       1     1962    5.479452050E-04
    1855       1     1963    5.479452050E-04
    1856       1     1964    5.479452050E-04
    1857       1     1965    5.479452050E-04
    1858       1     1966    5.479452050E-04
    1859       1     1967    5.479452050E-04
    1860       1     1968    5.479452050E-04
    1861       1     1969    5.479452050E-04
    1862       1     1970    5.479452050E-04
    1863       1     1971    5.479452050E-04
    1864       1     1972    5.479452050E-04
    1865       1     1973    5.479452050E-04
    1866       1     1974    5.479452050E-04
    1867       1     1975    5.479452050E-04
    1868       1     1976    5.479452050E-04
    1869       1     1977    5.479452050E-04
    1870       1     1978    5.479452050E-04
    1871       1     1979    5.479452050E-04
    1872       1     1980    5.479452050E-04
    1873       1     1981    5.479452050E-04
    1874       1     1982    5.479452050E-04
    1875       1     1983    5.479452050E-04
    1876       1     1984    5.479452050E-04
    1877       1     1985    5.479452050E-04
    1878       1     1986    5.479452050E-04
    1879       1     1987    5.479452050E-04
    1880       1     1988    5.479452050E-04
    1881       1     1989    5.479452050E-04
    1882       1     1990    5.479452050E-04
    1883       1     1991    5.479452050E-04
    1884       1     1992    5.479452050E-04
    1885       1     1993    5.479452050E-04
    1886       1     1994    5.479452050E-04
    1887       1     1995    5.479452050E-04
    1888       1     1996    5.479452050E-04
    1889       1     1997    5.479452050E-04
    1890       1     1998    5.479452050E-04
    1891       1     1999    5.479452050E-04
    1892       1     2000    5.479452050E-04
    1893       1     2001    5.479452050E-04
    1894       1     2002    5.479452050E-04
    1895       1     2003    5.479452050E-04
    1896       1     2006    5.479452050E-04
    1897       1     2007    5.479452050E-04
    1898       1     2008    5.479452050E-04
    1899       1     2009    5.479452050E-04
    1900       1     2010    5.479452050E-04
    1901       1     2011    5.479452050E-04
    1902       1     2012    5.479452050E-04
    1903       1     2013    5.479452050E-04
    1904       1     2014    5.479452050E-04
    1905       1     2015    5.479452050E-04
    1906       1     2016    5.479452050E-04
    1907       1     2017    5.479452050E-04
    1908       1     2018    5.479452050E-04
    1909       1     2019    5.479452050E-04
    1910       1     2020    5.479452050E-04
    1911       1     2021    5.479452050E-04
    1912       1     2022    5.479452050E-04
    1913       1     2023    5.479452050E-04
    1914       1     2024    5.479452050E-04
    1915       1     2025    5.479452050E-04
    1916       1     2026    5.479452050E-04
    1917       1     2027    5.479452050E-04
    1918       1     2028    5.479452050E-04
    1919       1     2029    5.479452050E-04
    1920       1     2030    5.479452050E-04
    1921       1     2031    5.479452050E-04
    1922       1     2032    5.479452050E-04
    1923       1     2033    5.479452050E-04
    1924       1     2034    5.479452050E-04
    1925       1     2035    5.479452050E-04
    1926       1     2036    5.479452050E-04
    1927       1     2037    5.479452050E-04
    1928       1     2038    5.479452050E-04
    1929       1     2039    5.479452050E-04
    1930       1     2040    5.479452050E-04
    1931       1     2041    5.479452050E-04
    1932       1     2042    5.479452050E-04
    1933       1     2043    5.479452050E-04
    1934       1     2044    5.479452050E-04
    1935       1     2045    5.479452050E-04
    1936       1     2046    5.479452050E-04
    1937       1     2047    5.479452050E-04
    1938       1     2048    5.479452050E-04
    1939       1     2049    5.479452050E-04
    1940       1     2050    5.479452050E-04
    1941       1     2051    5.479452050E-04
    1942       1     2052    5.479452050E-04
    1943       1     2053    5.479452050E-04
    1944       1     2054    5.479452050E-04
    1945       1     2055    5.479452050E-04
    1946       1     2056    5.479452050E-04
    1947       1     2057    5.479452050E-04
    1948       1     2058    5.479452050E-04
    1949       1     2059    5.479452050E-04
    1950       1     2060    5.479452050E-04
    1951       1     2061    5.479452050E-04
    1952       1     2062    5.479452050E-04
    1953       1     2063    5.479452050E-04
    1954       1     2064    5.479452050E-04
    1955       1     2065    5.479452050E-04
    1956       1     2066    5.479452050E-04
    1957       1     2067    5.479452050E-04
    1958       1     2068    5.479452050E-04
    1959       1     2069    5.479452050E-04
    1960       1     2070    5.479452050E-04
    1961       1     2071    5.479452050E-04
    1962       1     2072    5.479452050E-04
    1963       1     2073    5.479452050E-04
    1964       1     2074    5.479452050E-04
    1965       1     2077    5.479452050E-04
    1966       1     2078    5.479452050E-04
    1967       1     2079    5.479452050E-04
    1968       1     2080    5.479452050E-04
    1969       1     2081    5.479452050E-04
    1970       1     2082    5.479452050E-04
    1971       1     2083    5.479452050E-04
    1972       1     2084    5.479452050E-04
    1973       1     2085    5.479452050E-04
    1974       1     2086    5.479452050E-04
    1975       1     2087    5.479452050E-04
    1976       1     2088    5.479452050E-04
    1977       1     2089    5.479452050E-04
    1978       1     2090    5.479452050E-04
    1979       1     2091    5.479452050E-04
    1980       1     2092    5.479452050E-04
    1981       1     2093    5.479452050E-04
    1982       1     2094    5.479452050E-04
    1983       1     2095    5.479452050E-04
    1984       1     2096    5.479452050E-04
    1985       1     2097    5.479452050E-04
    1986       1     2098    5.479452050E-04
    1987       1     2099    5.479452050E-04
    1988       1     2100    5.479452050E-04
    1989       1     2101    5.479452050E-04
    1990       1     2102    5.479452050E-04
    1991       1     2103    5.479452050E-04
    1992       1     2104    5.479452050E-04
    1993       1     2105    5.479452050E-04
    1994       1     2106    5.479452050E-04
    1995       1     2107    5.479452050E-04
    1996       1     2108    5.479452050E-04
    1997       1     2109    5.479452050E-04
    1998       1     2110    5.479452050E-04
    1999       1     2111    5.479452050E-04
    2000       1     2112    5.479452050E-04
    2001       1     2113    5.479452050E-04
    2002       1     2114    5.479452050E-04
    2003       1     2115    5.479452050E-04
    2004       1     2116    5.479452050E-04
    2005       1     2117    5.479452050E-04
    2006       1     2118    5.479452050E-04
    2007       1     2119    5.479452050E-04
    2008       1     2120    5.479452050E-04
    2009       1     2121    5.479452050E-04
    2010       1     2122    5.479452050E-04
    2011       1     2123    5.479452050E-04
    2012       1     2124    5.479452050E-04
    2013       1     2125    5.479452050E-04
    2014       1     2126    5.479452050E-04
    2015       1     2127    5.479452050E-04
    2016       1     2128    5.479452050E-04
    2017       1     2129    5.479452050E-04
    2018       1     2130    5.479452050E-04
    2019       1     2131    5.479452050E-04
    2020       1     2132    5.479452050E-04
    2021       1     2133    5.479452050E-04
    2022       1     2134    5.479452050E-04
    2023       1     2135    5.479452050E-04
    2024       1     2136    5.479452050E-04
    2025       1     2137    5.479452050E-04
    2026       1     2138    5.479452050E-04
    2027       1     2139    5.479452050E-04
    2028       1     2140    5.479452050E-04
    2029       1     2141    5.479452050E-04
    2030       1     2142    5.479452050E-04
    2031       1     2143    5.479452050E-04
    2032       1     2144    5.479452050E-04
    2033       1     2147    5.479452050E-04
    2034       1     2148    5.479452050E-04
    2035       1     2149    5.479452050E-04
    2036       1     2150    5.479452050E-04
    2037       1     2151    5.479452050E-04
    2038       1     2152    5.479452050E-04
    2039       1     2153    5.479452050E-04
    2040       1     2154    5.479452050E-04
    2041       1     2155    5.479452050E-04
    2042       1     2156    5.479452050E-04
    2043       1     2157    5.479452050E-04
    2044       1     2158    5.479452050E-04
    2045       1     2159    5.479452050E-04
    2046       1     2160    5.479452050E-04
    2047       1     2161    5.479452050E-04
    2048       1     2162    5.479452050E-04
    2049       1     2163    5.479452050E-04
    2050       1     2164    5.479452050E-04
    2051       1     2165    5.479452050E-04
    2052       1     2166    5.479452050E-04
    2053       1     2167    5.479452050E-04
    2054       1     2168    5.479452050E-04
    2055       1     2169    5.479452050E-04
    2056       1     2170    5.479452050E-04
    2057       1     2171    5.479452050E-04
    2058       1     2172    5.479452050E-04
    2059       1     2173    5.479452050E-04
    2060       1     2174    5.479452050E-04
    2061       1     2175    5.479452050E-04
    2062       1     2176    5.479452050E-04
    2063       1     2177    5.479452050E-04
    2064       1     2178    5.479452050E-04
    2065       1     2179    5.479452050E-04
    2066       1     2180    5.479452050E-04
    2067       1     2181    5.479452050E-04
    2068       1     2182    5.479452050E-04
    2069       1     2183    5.479452050E-04
    2070       1     2184    5.479452050E-04
    2071       1     2185    5.479452050E-04
    2072       1     2186    5.479452050E-04
    2073       1     2187    5.479452050E-04
    2074       1     2188    5.479452050E-04
    2075       1     2189    5.479452050E-04
    2076       1     2190    5.479452050E-04
    2077       1     2191    5.479452050E-04
    2078       1     2192    5.479452050E-04
    2079       1     2193    5.479452050E-04
    2080       1     2194    5.479452050E-04
    2081       1     2195    5.479452050E-04
    2082       1     2196    5.479452050E-04
    2083       1     2197    5.479452050E-04
    2084       1     2198    5.479452050E-04
    2085       1     2199    5.479452050E-04
    2086       1     2200    5.479452050E-04
    2087       1     2201    5.479452050E-04
    2088       1     2202    5.479452050E-04
    2089       1     2203    5.479452050E-04
    2090       1     2204    5.479452050E-04
    2091       1     2205    5.479452050E-04
    2092       1     2206    5.479452050E-04
    2093       1     2207    5.479452050E-04
    2094       1     2208    5.479452050E-04
    2095       1     2209    5.479452050E-04
    2096       1     2210    5.479452050E-04
    2097       1     2211    5.479452050E-04
    2098       1     2212    5.479452050E-04
    2099       1     2213    5.479452050E-04
    2100       1     2216    5.479452050E-04
    2101       1     2217    5.479452050E-04
    2102       1     2218    5.479452050E-04
    2103       1     2219    5.479452050E-04
    2104       1     2220    5.479452050E-04
    2105       1     2221    5.479452050E-04
    2106       1     2222    5.479452050E-04
    2107       1     2223    5.479452050E-04
    2108       1     2224    5.479452050E-04
    2109       1     2225    5.479452050E-04
    2110       1     2226    5.479452050E-04
    2111       1     2227    5.479452050E-04
    2112       1     2228    5.479452050E-04
    2113       1     2229    5.479452050E-04
    2114       1     2230    5.479452050E-04
    2115       1     2231    5.479452050E-04
    2116       1     2232    5.479452050E-04
    2117       1     2233    5.479452050E-04
    2118       1     2234    5.479452050E-04
    2119       1     2235    5.479452050E-04
    2120       1     2236    5.479452050E-04
    2121       1     2237    5.479452050E-04
    2122       1     2238    5.479452050E-04
    2123       1     2239    5.479452050E-04
    2124       1     2240    5.479452050E-04
    2125       1     2241    5.479452050E-04
    2126       1     2242    5.479452050E-04
    2127       1     2243    5.479452050E-04
    2128       1     2244    5.479452050E-04
    2129       1     2245    5.479452050E-04
    2130       1     2246    5.479452050E-04
    2131       1     2247    5.479452050E-04
    2132       1     2248    5.479452050E-04
    2133       1     2249    5.479452050E-04
    2134       1     2250    5.479452050E-04
    2135       1     2251    5.479452050E-04
    2136       1     2252    5.479452050E-04
    2137       1     2253    5.479452050E-04
    2138       1     2254    5.479452050E-04
    2139       1     2255    5.479452050E-04
    2140       1     2256    5.479452050E-04
    2141       1     2257    5.479452050E-04
    2142       1     2258    5.479452050E-04
    2143       1     2259    5.479452050E-04
    2144       1     2260    5.479452050E-04
    2145       1     2261    5.479452050E-04
    2146       1     2262    5.479452050E-04
    2147       1     2263    5.479452050E-04
    2148       1     2264    5.479452050E-04
    2149       1     2265    5.479452050E-04
    2150       1     2266    5.479452050E-04
    2151       1     2267    5.479452050E-04
    2152       1     2268    5.479452050E-04
    2153       1     2269    5.479452050E-04
    2154       1     2270    5.479452050E-04
    2155       1     2271    5.479452050E-04
    2156       1     2272    5.479452050E-04
    2157       1     2273    5.479452050E-04
    2158       1     2274    5.479452050E-04
    2159       1     2275    5.479452050E-04
    2160       1     2276    5.479452050E-04
    2161       1     2277    5.479452050E-04
    2162       1     2278    5.479452050E-04
    2163       1     2279    5.479452050E-04
    2164       1     2280    5.479452050E-04
    2165       1     2281    5.479452050E-04
    2166       1     2282    5.479452050E-04
    2167       1     2283    5.479452050E-04
    2168       1     2284    5.479452050E-04
    2169       1     2285    5.479452050E-04
    2170       1     2286    5.479452050E-04
    2171       1     2287    5.479452050E-04
    2172       1     2288    5.479452050E-04
    2173       1     2289    5.479452050E-04
    2174       1     2290    5.479452050E-04
    2175       1     2291    5.479452050E-04
    2176       1     2292    5.479452050E-04
    2177       1     2293    5.479452050E-04
    2178       1     2294    5.479452050E-04
    2179       1     2295    5.479452050E-04
    2180       1     2296    5.479452050E-04
    2181       1     2297    5.479452050E-04
    2182       1     2298    5.479452050E-04
    2183       1     2299    5.479452050E-04
    2184       1     2300    5.479452050E-04
    2185       1     2301    5.479452050E-04
    2186       1     2302    5.479452050E-04
    2187       1     2303    5.479452050E-04
    2188       1     2304    5.479452050E-04
    2189       1     2305    5.479452050E-04
    2190       1     2306    5.479452050E-04
    2191       1     2307    5.479452050E-04
    2192       1     2308    5.479452050E-04
    2193       1     2311    5.479452050E-04
    2194       1     2312    5.479452050E-04
    2195       1     2313    5.479452050E-04
    2196       1     2314    5.479452050E-04
    2197       1     2315    5.479452050E-04
    2198       1     2316    5.479452050E-04
    2199       1     2317    5.479452050E-04
    2200       1     2318    5.479452050E-04
    2201       1     2319    5.479452050E-04
    2202       1     2320    5.479452050E-04
    2203       1     2321    5.479452050E-04
    2204       1     2322    5.479452050E-04
    2205       1     2323    5.479452050E-04
    2206       1     2324    5.479452050E-04
    2207       1     2325    5.479452050E-04
    2208       1     2326    5.479452050E-04
    2209       1     2327    5.479452050E-04
    2210       1     2328    5.479452050E-04
    2211       1     2329    5.479452050E-04
    2212       1     2330    5.479452050E-04
    2213       1     2331    5.479452050E-04
    2214       1     2332    5.479452050E-04
    2215       1     2333    5.479452050E-04
    2216       1     2334    5.479452050E-04
    2217       1     2335    5.479452050E-04
    2218       1     2336    5.479452050E-04
    2219       1     2337    5.479452050E-04
    2220       1     2338    5.479452050E-04
    2221       1     2339    5.479452050E-04
    2222       1     2340    5.479452050E-04
    2223       1     2341    5.479452050E-04
    2224       1     2342    5.479452050E-04
    2225       1     2343    5.479452050E-04
    2226       1     2344    5.479452050E-04
    2227       1     2345    5.479452050E-04
    2228       1     2346    5.479452050E-04
    2229       1     2347    5.479452050E-04
    2230       1     2348    5.479452050E-04
    2231       1     2349    5.479452050E-04
    2232       1     2350    5.479452050E-04
    2233       1     2351    5.479452050E-04
    2234       1     2352    5.479452050E-04
    2235       1     2353    5.479452050E-04
    2236       1     2354    5.479452050E-04
    2237       1     2355    5.479452050E-04
    2238       1     2356    5.479452050E-04
    2239       1     2357    5.479452050E-04
    2240       1     2358    5.479452050E-04
    2241       1     2359    5.479452050E-04
    2242       1     2360    5.479452050E-04
    2243       1     2361    5.479452050E-04
    2244       1     2362    5.479452050E-04
    2245       1     2363    5.479452050E-04
    2246       1     2364    5.479452050E-04
    2247       1     2365    5.479452050E-04
    2248       1     2366    5.479452050E-04
    2249       1     2367    5.479452050E-04
    2250       1     2368    5.479452050E-04
    2251       1     2369    5.479452050E-04
    2252       1     2370    5.479452050E-04
    2253       1     2371    5.479452050E-04
    2254       1     2372    5.479452050E-04
    2255       1     2373    5.479452050E-04
    2256       1     2374    5.479452050E-04
    2257       1     2375    5.479452050E-04
    2258       1     2376    5.479452050E-04
    2259       1     2377    5.479452050E-04
    2260       1     2378    5.479452050E-04
    2261       1     2379    5.479452050E-04
    2262       1     2380    5.479452050E-04
    2263       1     2381    5.479452050E-04
    2264       1     2382    5.479452050E-04
    2265       1     2383    5.479452050E-04
    2266       1     2384    5.479452050E-04
    2267       1     2385    5.479452050E-04
    2268       1     2386    5.479452050E-04
    2269       1     2387    5.479452050E-04
    2270       1     2388    5.479452050E-04
    2271       1     2389    5.479452050E-04
    2272       1     2390    5.479452050E-04
    2273       1     2391    5.479452050E-04
    2274       1     2392    5.479452050E-04
    2275       1     2393    5.479452050E-04
    2276       1     2394    5.479452050E-04
    2277       1     2395    5.479452050E-04
    2278       1     2396    5.479452050E-04
    2279       1     2397    5.479452050E-04
    2280       1     2398    5.479452050E-04
    2281       1     2399    5.479452050E-04
    2282       1     2400    5.479452050E-04
    2283       1     2401    5.479452050E-04
    2284       1     2402    5.479452050E-04
    2285       1     2405    5.479452050E-04
    2286       1     2406    5.479452050E-04
    2287       1     2407    5.479452050E-04
    2288       1     2408    5.479452050E-04
    2289       1     2409    5.479452050E-04
    2290       1     2410    5.479452050E-04
    2291       1     2411    5.479452050E-04
    2292       1     2412    5.479452050E-04
    2293       1     2413    5.479452050E-04
    2294       1     2414    5.479452050E-04
    2295       1     2415    5.479452050E-04
    2296       1     2416    5.479452050E-04
    2297       1     2417    5.479452050E-04
    2298       1     2418    5.479452050E-04
    2299       1     2419    5.479452050E-04
    2300       1     2420    5.479452050E-04
    2301       1     2421    5.479452050E-04
    2302       1     2422    5.479452050E-04
    2303       1     2423    5.479452050E-04
    2304       1     2424    5.479452050E-04
    2305       1     2425    5.479452050E-04
    2306       1     2426    5.479452050E-04
    2307       1     2427    5.479452050E-04
    2308       1     2428    5.479452050E-04
    2309       1     2429    5.479452050E-04
    2310       1     2430    5.479452050E-04
    2311       1     2431    5.479452050E-04
    2312       1     2432    5.479452050E-04
    2313       1     2433    5.479452050E-04
    2314       1     2434    5.479452050E-04
    2315       1     2435    5.479452050E-04
    2316       1     2436    5.479452050E-04
    2317       1     2437    5.479452050E-04
    2318       1     2438    5.479452050E-04
    2319       1     2439    5.479452050E-04
    2320       1     2440    5.479452050E-04
    2321       1     2441    5.479452050E-04
    2322       1     2442    5.479452050E-04
    2323       1     2443    5.479452050E-04
    2324       1     2444    5.479452050E-04
    2325       1     2445    5.479452050E-04
    2326       1     2446    5.479452050E-04
    2327       1     2447    5.479452050E-04
    2328       1     2448    5.479452050E-04
    2329       1     2449    5.479452050E-04
    2330       1     2450    5.479452050E-04
    2331       1     2451    5.479452050E-04
    2332       1     2452    5.479452050E-04
    2333       1     2453    5.479452050E-04
    2334       1     2454    5.479452050E-04
    2335       1     2455    5.479452050E-04
    2336       1     2456    5.479452050E-04
    2337       1     2457    5.479452050E-04
    2338       1     2458    5.479452050E-04
    2339       1     2459    5.479452050E-04
    2340       1     2460    5.479452050E-04
    2341       1     2461    5.479452050E-04
    2342       1     2462    5.479452050E-04
    2343       1     2463    5.479452050E-04
    2344       1     2464    5.479452050E-04
    2345       1     2465    5.479452050E-04
    2346       1     2466    5.479452050E-04
    2347       1     2467    5.479452050E-04
    2348       1     2468    5.479452050E-04
    2349       1     2469    5.479452050E-04
    2350       1     2470    5.479452050E-04
    2351       1     2471    5.479452050E-04
    2352       1     2472    5.479452050E-04
    2353       1     2473    5.479452050E-04
    2354       1     2474    5.479452050E-04
    2355       1     2475    5.479452050E-04
    2356       1     2476    5.479452050E-04
    2357       1     2477    5.479452050E-04
    2358       1     2478    5.479452050E-04
    2359       1     2479    5.479452050E-04
    2360       1     2480    5.479452050E-04
    2361       1     2481    5.479452050E-04
    2362       1     2482    5.479452050E-04
    2363       1     2483    5.479452050E-04
    2364       1     2484    5.479452050E-04
    2365       1     2485    5.479452050E-04
    2366       1     2486    5.479452050E-04
    2367       1     2489    5.479452050E-04
    2368       1     2490    5.479452050E-04
    2369       1     2491    5.479452050E-04
    2370       1     2492    5.479452050E-04
    2371       1     2493    5.479452050E-04
    2372       1     2494    5.479452050E-04
    2373       1     2495    5.479452050E-04
    2374       1     2496    5.479452050E-04
    2375       1     2497    5.479452050E-04
    2376       1     2498    5.479452050E-04
    2377       1     2499    5.479452050E-04
    2378       1     2500    5.479452050E-04
    2379       1     2501    5.479452050E-04
    2380       1     2502    5.479452050E-04
    2381       1     2503    5.479452050E-04
    2382       1     2504    5.479452050E-04
    2383       1     2505    5.479452050E-04
    2384       1     2506    5.479452050E-04
    2385       1     2507    5.479452050E-04
    2386       1     2508    5.479452050E-04
    2387       1     2509    5.479452050E-04
    2388       1     2510    5.479452050E-04
    2389       1     2511    5.479452050E-04
    2390       1     2512    5.479452050E-04
    2391       1     2513    5.479452050E-04
    2392       1     2514    5.479452050E-04
    2393       1     2515    5.479452050E-04
    2394       1     2516    5.479452050E-04
    2395       1     2517    5.479452050E-04
    2396       1     2518    5.479452050E-04
    2397       1     2519    5.479452050E-04
    2398       1     2520    5.479452050E-04
    2399       1     2521    5.479452050E-04
    2400       1     2522    5.479452050E-04
    2401       1     2523    5.479452050E-04
    2402       1     2524    5.479452050E-04
    2403       1     2525    5.479452050E-04
    2404       1     2526    5.479452050E-04
    2405       1     2527    5.479452050E-04
    2406       1     2528    5.479452050E-04
    2407       1     2529    5.479452050E-04
    2408       1     2530    5.479452050E-04
    2409       1     2531    5.479452050E-04
    2410       1     2532    5.479452050E-04
    2411       1     2533    5.479452050E-04
    2412       1     2534    5.479452050E-04
    2413       1     2535    5.479452050E-04
    2414       1     2536    5.479452050E-04
    2415       1     2537    5.479452050E-04
    2416       1     2538    5.479452050E-04
    2417       1     2539    5.479452050E-04
    2418       1     2540    5.479452050E-04
    2419       1     2541    5.479452050E-04
    2420       1     2542    5.479452050E-04
    2421       1     2543    5.479452050E-04
    2422       1     2544    5.479452050E-04
    2423       1     2545    5.479452050E-04
    2424       1     2546    5.479452050E-04
    2425       1     2547    5.479452050E-04
    2426       1     2548    5.479452050E-04
    2427       1     2549    5.479452050E-04
    2428       1     2550    5.479452050E-04
    2429       1     2551    5.479452050E-04
    2430       1     2552    5.479452050E-04
    2431       1     2553    5.479452050E-04
    2432       1     2554    5.479452050E-04
    2433       1     2555    5.479452050E-04
    2434       1     2556    5.479452050E-04
    2435       1     2557    5.479452050E-04
    2436       1     2558    5.479452050E-04
    2437       1     2559    5.479452050E-04
    2438       1     2560    5.479452050E-04
    2439       1     2561    5.479452050E-04
    2440       1     2562    5.479452050E-04
    2441       1     2563    5.479452050E-04
    2442       1     2567    5.479452050E-04
    2443       1     2568    5.479452050E-04
    2444       1     2569    5.479452050E-04
    2445       1     2570    5.479452050E-04
    2446       1     2571    5.479452050E-04
    2447       1     2572    5.479452050E-04
    2448       1     2573    5.479452050E-04
    2449       1     2574    5.479452050E-04
    2450       1     2575    5.479452050E-04
    2451       1     2576    5.479452050E-04
    2452       1     2577    5.479452050E-04
    2453       1     2578    5.479452050E-04
    2454       1     2579    5.479452050E-04
    2455       1     2580    5.479452050E-04
    2456       1     2581    5.479452050E-04
    2457       1     2582    5.479452050E-04
    2458       1     2583    5.479452050E-04
    2459       1     2584    5.479452050E-04
    2460       1     2585    5.479452050E-04
    2461       1     2586    5.479452050E-04
    2462       1     2587    5.479452050E-04
    2463       1     2588    5.479452050E-04
    2464       1     2589    5.479452050E-04
    2465       1     2590    5.479452050E-04
    2466       1     2591    5.479452050E-04
    2467       1     2592    5.479452050E-04
    2468       1     2593    5.479452050E-04
    2469       1     2594    5.479452050E-04
    2470       1     2595    5.479452050E-04
    2471       1     2596    5.479452050E-04
    2472       1     2597    5.479452050E-04
    2473       1     2598    5.479452050E-04
    2474       1     2599    5.479452050E-04
    2475       1     2600    5.479452050E-04
    2476       1     2601    5.479452050E-04
    2477       1     2602    5.479452050E-04
    2478       1     2603    5.479452050E-04
    2479       1     2604    5.479452050E-04
    2480       1     2605    5.479452050E-04
    2481       1     2606    5.479452050E-04
    2482       1     2607    5.479452050E-04
    2483       1     2608    5.479452050E-04
    2484       1     2609    5.479452050E-04
    2485       1     2610    5.479452050E-04
    2486       1     2611    5.479452050E-04
    2487       1     2612    5.479452050E-04
    2488       1     2613    5.479452050E-04
    2489       1     2614    5.479452050E-04
    2490       1     2615    5.479452050E-04
    2491       1     2616    5.479452050E-04
    2492       1     2617    5.479452050E-04
    2493       1     2618    5.479452050E-04
    2494       1     2619    5.479452050E-04
    2495       1     2620    5.479452050E-04
    2496       1     2621    5.479452050E-04
    2497       1     2622    5.479452050E-04
    2498       1     2623    5.479452050E-04
    2499       1     2624    5.479452050E-04
    2500       1     2625    5.479452050E-04
    2501       1     2626    5.479452050E-04
    2502       1     2627    5.479452050E-04
    2503       1     2628    5.479452050E-04
    2504       1     2629    5.479452050E-04
    2505       1     2630    5.479452050E-04
    2506       1     2631    5.479452050E-04
    2507       1     2632    5.479452050E-04
    2508       1     2633    5.479452050E-04
    2509       1     2634    5.479452050E-04
    2510       1     2637    5.479452050E-04
    2511       1     2638    5.479452050E-04
    2512       1     2639    5.479452050E-04
    2513       1     2640    5.479452050E-04
    2514       1     2641    5.479452050E-04
    2515       1     2642    5.479452050E-04
    2516       1     2643    5.479452050E-04
    2517       1     2644    5.479452050E-04
    2518       1     2645    5.479452050E-04
    2519       1     2646    5.479452050E-04
    2520       1     2647    5.479452050E-04
    2521       1     2648    5.479452050E-04
    2522       1     2649    5.479452050E-04
    2523       1     2650    5.479452050E-04
    2524       1     2651    5.479452050E-04
    2525       1     2652    5.479452050E-04
    2526       1     2653    5.479452050E-04
    2527       1     2654    5.479452050E-04
    2528       1     2655    5.479452050E-04
    2529       1     2656    5.479452050E-04
    2530       1     2657    5.479452050E-04
    2531       1     2658    5.479452050E-04
    2532       1     2659    5.479452050E-04
    2533       1     2660    5.479452050E-04
    2534       1     2661    5.479452050E-04
    2535       1     2662    5.479452050E-04
    2536       1     2663    5.479452050E-04
    2537       1     2664    5.479452050E-04
    2538       1     2665    5.479452050E-04
    2539       1     2666    5.479452050E-04
    2540       1     2667    5.479452050E-04
    2541       1     2668    5.479452050E-04
    2542       1     2669    5.479452050E-04
    2543       1     2670    5.479452050E-04
    2544       1     2671    5.479452050E-04
    2545       1     2672    5.479452050E-04
    2546       1     2673    5.479452050E-04
    2547       1     2674    5.479452050E-04
    2548       1     2675    5.479452050E-04
    2549       1     2676    5.479452050E-04
    2550       1     2677    5.479452050E-04
    2551       1     2678    5.479452050E-04
    2552       1     2679    5.479452050E-04
    2553       1     2680    5.479452050E-04
    2554       1     2681    5.479452050E-04
    2555       1     2682    5.479452050E-04
    2556       1     2683    5.479452050E-04
    2557       1     2684    5.479452050E-04
    2558       1     2685    5.479452050E-04
    2559       1     2686    5.479452050E-04
    2560       1     2687    5.479452050E-04
    2561       1     2688    5.479452050E-04
    2562       1     2689    5.479452050E-04
    2563       1     2690    5.479452050E-04
    2564       1     2691    5.479452050E-04
    2565       1     2692    5.479452050E-04
    2566       1     2693    5.479452050E-04
    2567       1     2694    5.479452050E-04
    2568       1     2695    5.479452050E-04
    2569       1     2696    5.479452050E-04
    2570       1     2697    5.479452050E-04
    2571       1     2698    5.479452050E-04
    2572       1     2699    5.479452050E-04
    2573       1     2700    5.479452050E-04
    2574       1     2701    5.479452050E-04
    2575       1     2702    5.479452050E-04
    2576       1     2703    5.479452050E-04
    2577       1     2706    5.479452050E-04
    2578       1     2707    5.479452050E-04
    2579       1     2708    5.479452050E-04
    2580       1     2709    5.479452050E-04
    2581       1     2710    5.479452050E-04
    2582       1     2711    5.479452050E-04
    2583       1     2712    5.479452050E-04
    2584       1     2713    5.479452050E-04
    2585       1     2714    5.479452050E-04
    2586       1     2715    5.479452050E-04
    2587       1     2716    5.479452050E-04
    2588       1     2717    5.479452050E-04
    2589       1     2718    5.479452050E-04
    2590       1     2719    5.479452050E-04
    2591       1     2720    5.479452050E-04
    2592       1     2721    5.479452050E-04
    2593       1     2722    5.479452050E-04
    2594       1     2723    5.479452050E-04
    2595       1     2724    5.479452050E-04
    2596       1     2725    5.479452050E-04
    2597       1     2726    5.479452050E-04
    2598       1     2727    5.479452050E-04
    2599       1     2728    5.479452050E-04
    2600       1     2729    5.479452050E-04
    2601       1     2730    5.479452050E-04
    2602       1     2731    5.479452050E-04
    2603       1     2732    5.479452050E-04
    2604       1     2733    5.479452050E-04
    2605       1     2734    5.479452050E-04
    2606       1     2735    5.479452050E-04
    2607       1     2736    5.479452050E-04
    2608       1     2737    5.479452050E-04
    2609       1     2738    5.479452050E-04
    2610       1     2739    5.479452050E-04
    2611       1     2740    5.479452050E-04
    2612       1     2741    5.479452050E-04
    2613       1     2742    5.479452050E-04
    2614       1     2743    5.479452050E-04
    2615       1     2744    5.479452050E-04
    2616       1     2745    5.479452050E-04
    2617       1     2746    5.479452050E-04
    2618       1     2747    5.479452050E-04
    2619       1     2748    5.479452050E-04
    2620       1     2749    5.479452050E-04
    2621       1     2750    5.479452050E-04
    2622       1     2751    5.479452050E-04
    2623       1     2752    5.479452050E-04
    2624       1     2753    5.479452050E-04
    2625       1     2754    5.479452050E-04
    2626       1     2755    5.479452050E-04
    2627       1     2756    5.479452050E-04
    2628       1     2757    5.479452050E-04
    2629       1     2758    5.479452050E-04
    2630       1     2759    5.479452050E-04
    2631       1     2760    5.479452050E-04
    2632       1     2761    5.479452050E-04
    2633       1     2762    5.479452050E-04
    2634       1     2763    5.479452050E-04
    2635       1     2764    5.479452050E-04
    2636       1     2765    5.479452050E-04
    2637       1     2766    5.479452050E-04
    2638       1     2767    5.479452050E-04
    2639       1     2768    5.479452050E-04
    2640       1     2769    5.479452050E-04
    2641       1     2770    5.479452050E-04
    2642       1     2771    5.479452050E-04
    2643       1     2772    5.479452050E-04
    2644       1     2773    5.479452050E-04
    2645       1     2774    5.479452050E-04
    2646       1     2775    5.479452050E-04
    2647       1     2776    5.479452050E-04
    2648       1     2777    5.479452050E-04
    2649       1     2778    5.479452050E-04
    2650       1     2779    5.479452050E-04
    2651       1     2780    5.479452050E-04
    2652       1     2781    5.479452050E-04
    2653       1     2782    5.479452050E-04
    2654       1     2783    5.479452050E-04
    2655       1     2786    5.479452050E-04
    2656       1     2787    5.479452050E-04
    2657       1     2788    5.479452050E-04
    2658       1     2789    5.479452050E-04
    2659       1     2790    5.479452050E-04
    2660       1     2791    5.479452050E-04
    2661       1     2792    5.479452050E-04
    2662       1     2793    5.479452050E-04
    2663       1     2794    5.479452050E-04
    2664       1     2795    5.479452050E-04
    2665       1     2796    5.479452050E-04
    2666       1     2797    5.479452050E-04
    2667       1     2798    5.479452050E-04
    2668       1     2799    5.479452050E-04
    2669       1     2800    5.479452050E-04
    2670       1     2801    5.479452050E-04
    2671       1     2802    5.479452050E-04
    2672       1     2803    5.479452050E-04
    2673       1     2804    5.479452050E-04
    2674       1     2805    5.479452050E-04
    2675       1     2806    5.479452050E-04
    2676       1     2807    5.479452050E-04
    2677       1     2808    5.479452050E-04
    2678       1     2809    5.479452050E-04
    2679       1     2810    5.479452050E-04
    2680       1     2811    5.479452050E-04
    2681       1     2812    5.479452050E-04
    2682       1     2813    5.479452050E-04
    2683       1     2814    5.479452050E-04
    2684       1     2815    5.479452050E-04
    2685       1     2816    5.479452050E-04
    2686       1     2817    5.479452050E-04
    2687       1     2818    5.479452050E-04
    2688       1     2819    5.479452050E-04
    2689       1     2820    5.479452050E-04
    2690       1     2821    5.479452050E-04
    2691       1     2822    5.479452050E-04
    2692       1     2823    5.479452050E-04
    2693       1     2824    5.479452050E-04
    2694       1     2825    5.479452050E-04
    2695       1     2826    5.479452050E-04
    2696       1     2827    5.479452050E-04
    2697       1     2828    5.479452050E-04
    2698       1     2829    5.479452050E-04
    2699       1     2830    5.479452050E-04
    2700       1     2831    5.479452050E-04
    2701       1     2832    5.479452050E-04
    2702       1     2833    5.479452050E-04
    2703       1     2834    5.479452050E-04
    2704       1     2835    5.479452050E-04
    2705       1     2836    5.479452050E-04
    2706       1     2837    5.479452050E-04
    2707       1     2838    5.479452050E-04
    2708       1     2839    5.479452050E-04
    2709       1     2840    5.479452050E-04
    2710       1     2841    5.479452050E-04
    2711       1     2842    5.479452050E-04
    2712       1     2843    5.479452050E-04
    2713       1     2844    5.479452050E-04
    2714       1     2845    5.479452050E-04
    2715       1     2846    5.479452050E-04
    2716       1     2847    5.479452050E-04
    2717       1     2848    5.479452050E-04
    2718       1     2849    5.479452050E-04
    2719       1     2850    5.479452050E-04
    2720       1     2851    5.479452050E-04
    2721       1     2852    5.479452050E-04
    2722       1     2853    5.479452050E-04
    2723       1     2854    5.479452050E-04
    2724       1     2857    5.479452050E-04
    2725       1     2858    5.479452050E-04
    2726       1     2859    5.479452050E-04
    2727       1     2860    5.479452050E-04
    2728       1     2861    5.479452050E-04
    2729       1     2862    5.479452050E-04
    2730       1     2863    5.479452050E-04
    2731       1     2864    5.479452050E-04
    2732       1     2865    5.479452050E-04
    2733       1     2866    5.479452050E-04
    2734       1     2867    5.479452050E-04
    2735       1     2868    5.479452050E-04
    2736       1     2869    5.479452050E-04
    2737       1     2870    5.479452050E-04
    2738       1     2871    5.479452050E-04
    2739       1     2872    5.479452050E-04
    2740       1     2873    5.479452050E-04
    2741       1     2874    5.479452050E-04
    2742       1     2875    5.479452050E-04
    2743       1     2876    5.479452050E-04
    2744       1     2877    5.479452050E-04
    2745       1     2878    5.479452050E-04
    2746       1     2879    5.479452050E-04
    2747       1     2880    5.479452050E-04
    2748       1     2881    5.479452050E-04
    2749       1     2882    5.479452050E-04
    2750       1     2883    5.479452050E-04
    2751       1     2884    5.479452050E-04
    2752       1     2885    5.479452050E-04
    2753       1     2886    5.479452050E-04
    2754       1     2887    5.479452050E-04
    2755       1     2888    5.479452050E-04
    2756       1     2889    5.479452050E-04
    2757       1     2890    5.479452050E-04
    2758       1     2891    5.479452050E-04
    2759       1     2892    5.479452050E-04
    2760       1     2893    5.479452050E-04
    2761       1     2894    5.479452050E-04
    2762       1     2895    5.479452050E-04
    2763       1     2896    5.479452050E-04
    2764       1     2897    5.479452050E-04
    2765       1     2898    5.479452050E-04
    2766       1     2899    5.479452050E-04
    2767       1     2900    5.479452050E-04
    2768       1     2901    5.479452050E-04
    2769       1     2902    5.479452050E-04
    2770       1     2903    5.479452050E-04
    2771       1     2904    5.479452050E-04
    2772       1     2905    5.479452050E-04
    2773       1     2906    5.479452050E-04
    2774       1     2907    5.479452050E-04
    2775       1     2908    5.479452050E-04
    2776       1     2909    5.479452050E-04
    2777       1     2910    5.479452050E-04
    2778       1     2911    5.479452050E-04
    2779       1     2912    5.479452050E-04
    2780       1     2913    5.479452050E-04
    2781       1     2914    5.479452050E-04
    2782       1     2915    5.479452050E-04
    2783       1     2916    5.479452050E-04
    2784       1     2917    5.479452050E-04
    2785       1     2918    5.479452050E-04
    2786       1     2919    5.479452050E-04
    2787       1     2922    5.479452050E-04
    2788       1     2923    5.479452050E-04
    2789       1     2924    5.479452050E-04
    2790       1     2925    5.479452050E-04
    2791       1     2926    5.479452050E-04
    2792       1     2927    5.479452050E-04
    2793       1     2928    5.479452050E-04
    2794       1     2929    5.479452050E-04
    2795       1     2930    5.479452050E-04
    2796       1     2931    5.479452050E-04
    2797       1     2932    5.479452050E-04
    2798       1     2933    5.479452050E-04
    2799       1     2934    5.479452050E-04
    2800       1     2935    5.479452050E-04
    2801       1     2936    5.479452050E-04
    2802       1     2937    5.479452050E-04
    2803       1     2938    5.479452050E-04
    2804       1     2939    5.479452050E-04
    2805       1     2940    5.479452050E-04
    2806       1     2941    5.479452050E-04
    2807       1     2942    5.479452050E-04
    2808       1     2943    5.479452050E-04
    2809       1     2944    5.479452050E-04
    2810       1     2945    5.479452050E-04
    2811       1     2946    5.479452050E-04
    2812       1     2947    5.479452050E-04
    2813       1     2948    5.479452050E-04
    2814       1     2949    5.479452050E-04
    2815       1     2950    5.479452050E-04
    2816       1     2951    5.479452050E-04
    2817       1     2952    5.479452050E-04
    2818       1     2953    5.479452050E-04
    2819       1     2954    5.479452050E-04
    2820       1     2955    5.479452050E-04
    2821       1     2956    5.479452050E-04
    2822       1     2957    5.479452050E-04
    2823       1     2958    5.479452050E-04
    2824       1     2959    5.479452050E-04
    2825       1     2960    5.479452050E-04
    2826       1     2961    5.479452050E-04
    2827       1     2962    5.479452050E-04
    2828       1     2963    5.479452050E-04
    2829       1     2964    5.479452050E-04
    2830       1     2965    5.479452050E-04
    2831       1     2966    5.479452050E-04
    2832       1     2967    5.479452050E-04
    2833       1     2968    5.479452050E-04
    2834       1     2969    5.479452050E-04
    2835       1     2972    5.479452050E-04
    2836       1     2973    5.479452050E-04
    2837       1     2974    5.479452050E-04
    2838       1     2975    5.479452050E-04
    2839       1     2976    5.479452050E-04
    2840       1     2977    5.479452050E-04
    2841       1     2978    5.479452050E-04
    2842       1     2979    5.479452050E-04
    2843       1     2980    5.479452050E-04
    2844       1     2981    5.479452050E-04
    2845       1     2982    5.479452050E-04
    2846       1     2983    5.479452050E-04
    2847       1     2984    5.479452050E-04
    2848       1     2985    5.479452050E-04
    2849       1     2986    5.479452050E-04
    2850       1     2987    5.479452050E-04
    2851       1     2988    5.479452050E-04
    2852       1     2989    5.479452050E-04
    2853       1     2990    5.479452050E-04
    2854       1     2991    5.479452050E-04
    2855       1     2992    5.479452050E-04
    2856       1     2993    5.479452050E-04
    2857       1     2994    5.479452050E-04
    2858       1     2995    5.479452050E-04
    2859       1     2996    5.479452050E-04
    2860       1     2997    5.479452050E-04
    2861       1     2998    5.479452050E-04
    2862       1     2999    5.479452050E-04
    2863       1     3000    5.479452050E-04
    2864       1     3001    5.479452050E-04
    2865       1     3002    5.479452050E-04
    2866       1     3003    5.479452050E-04
    2867       1     3004    5.479452050E-04
    2868       1     3005    5.479452050E-04
    2869       1     3006    5.479452050E-04
    2870       1     3007    5.479452050E-04
    2871       1     3008    5.479452050E-04
    2872       1     3009    5.479452050E-04
    2873       1     3010    5.479452050E-04
    2874       1     3011    5.479452050E-04
    2875       1     3012    5.479452050E-04
    2876       1     3013    5.479452050E-04
    2877       1     3014    5.479452050E-04
    2878       1     3019    5.479452050E-04
    2879       1     3020    5.479452050E-04
    2880       1     3021    5.479452050E-04
    2881       1     3022    5.479452050E-04
    2882       1     3023    5.479452050E-04
    2883       1     3024    5.479452050E-04
    2884       1     3025    5.479452050E-04
    2885       1     3026    5.479452050E-04
    2886       1     3027    5.479452050E-04
    2887       1     3028    5.479452050E-04
    2888       1     3029    5.479452050E-04
    2889       1     3030    5.479452050E-04
    2890       1     3031    5.479452050E-04
    2891       1     3032    5.479452050E-04
    2892       1     3033    5.479452050E-04
    2893       1     3034    5.479452050E-04
    2894       1     3035    5.479452050E-04
    2895       1     3036    5.479452050E-04
    2896       1     3037    5.479452050E-04
    2897       1     3038    5.479452050E-04
    2898       1     3039    5.479452050E-04
    2899       1     3040    5.479452050E-04
    2900       1     3041    5.479452050E-04
    2901       1     3042    5.479452050E-04
    2902       1     3043    5.479452050E-04
    2903       1     3044    5.479452050E-04
    2904       1     3045    5.479452050E-04
    2905       1     3046    5.479452050E-04
    2906       1     3047    5.479452050E-04
    2907       1     3048    5.479452050E-04
    2908       1     3049    5.479452050E-04
    2909       1     3050    5.479452050E-04
    2910       1     3051    5.479452050E-04
    2911       1     3052    5.479452050E-04
    2912       1     3053    5.479452050E-04
    2913       1     3054    5.479452050E-04
    2914       1     3062    5.479452050E-04
    2915       1     3063    5.479452050E-04
    2916       1     3064    5.479452050E-04
    2917       1     3065    5.479452050E-04
    2918       1     3066    5.479452050E-04
    2919       1     3067    5.479452050E-04
    2920       1     3068    5.479452050E-04
    2921       1     3069    5.479452050E-04
    2922       1     3070    5.479452050E-04
    2923       1     3071    5.479452050E-04
    2924       1     3072    5.479452050E-04
    2925       1     3073    5.479452050E-04
    2926       1     3074    5.479452050E-04
    2927       1     3075    5.479452050E-04
    2928       1     3076    5.479452050E-04
    2929       1     3077    5.479452050E-04
    2930       1     3098    5.479452050E-04
    2931       1     3099    5.479452050E-04
    2932       1     3100    5.479452050E-04
    2933       1     3101    5.479452050E-04
    2934       1     3102    5.479452050E-04
    2935       1     3103    5.479452050E-04
    2936       1     3104    5.479452050E-04
    2937       1     3105    5.479452050E-04
    2938       1     3106    5.479452050E-04
    2939       1     3107    5.479452050E-04
    2940       1     3108    5.479452050E-04
    2941       1     3109    5.479452050E-04
    2942       1     3110    5.479452050E-04
    2943       1     3111    5.479452050E-04
    2944       1     3113    5.479452050E-04
    2945       1     3114    5.479452050E-04
    2946       1     3115    5.479452050E-04
    2947       1     3116    5.479452050E-04
    2948       1     3117    5.479452050E-04
    2949       1     3118    5.479452050E-04
    2950       1     3119    5.479452050E-04
    2951       1     3120    5.479452050E-04
    2952       1     3121    5.479452050E-04
    2953       1     3122    5.479452050E-04
    2954       1     3123    5.479452050E-04
    2955       1     3124    5.479452050E-04
 -------------------------------------------



 SFR PACKAGE (SFR) DATA FOR PERIOD      1
 ---------------------------------------------------------------
   NUMBER   KEYWORD                  VALUE 1         VALUE 2    
 ---------------------------------------------------------------
     1      STATUS                   ACTIVE                     
     1      UPSTREAM_FRACTION      1.00000000                   
     1      MANNING                   0.03                      
     2      STATUS                   ACTIVE                     
     2      UPSTREAM_FRACTION      1.00000000                   
     2      MANNING                   0.03                      
     3      STATUS                   ACTIVE                     
     3      UPSTREAM_FRACTION      1.00000000                   
     3      MANNING                   0.03                      
     4      STATUS                   ACTIVE                     
     4      UPSTREAM_FRACTION      1.00000000                   
     4      MANNING                   0.03                      
     5      STATUS                   ACTIVE                     
     5      UPSTREAM_FRACTION      1.00000000                   
     5      MANNING                   0.03                      
     6      STATUS                   ACTIVE                     
     6      UPSTREAM_FRACTION      1.00000000                   
     6      MANNING                   0.03                      
     7      STATUS                   ACTIVE                     
     7      UPSTREAM_FRACTION      1.00000000                   
     7      MANNING                   0.03                      
     8      STATUS                   ACTIVE                     
     8      UPSTREAM_FRACTION      1.00000000                   
     8      MANNING                   0.03                      
     9      STATUS                   ACTIVE                     
     9      UPSTREAM_FRACTION      1.00000000                   
     9      MANNING                   0.03                      
     10     STATUS                   ACTIVE                     
     10     UPSTREAM_FRACTION      1.00000000                   
     10     MANNING                   0.03                      
     11     STATUS                   ACTIVE                     
     11     UPSTREAM_FRACTION      1.00000000                   
     11     MANNING                   0.03                      
     12     STATUS                   ACTIVE                     
     12     UPSTREAM_FRACTION      1.00000000                   
     12     MANNING                   0.03                      
     13     STATUS                   ACTIVE                     
     13     UPSTREAM_FRACTION      1.00000000                   
     13     MANNING                   0.03                      
     14     STATUS                   ACTIVE                     
     14     UPSTREAM_FRACTION      1.00000000                   
     14     MANNING                   0.03                      
     15     STATUS                   ACTIVE                     
     15     UPSTREAM_FRACTION      1.00000000                   
     15     MANNING                   0.03                      
     16     STATUS                   ACTIVE                     
     16     UPSTREAM_FRACTION      1.00000000                   
     16     MANNING                   0.03                      
     17     STATUS                   ACTIVE                     
     17     UPSTREAM_FRACTION      1.00000000                   
     17     MANNING                   0.03                      
     18     STATUS                   ACTIVE                     
     18     UPSTREAM_FRACTION      1.00000000                   
     18     MANNING                   0.03                      
     19     STATUS                   ACTIVE                     
     19     UPSTREAM_FRACTION      1.00000000                   
     19     MANNING                   0.03                      
     20     STATUS                   ACTIVE                     
     20     UPSTREAM_FRACTION      1.00000000                   
     20     MANNING                   0.03                      
     21     STATUS                   ACTIVE                     
     21     UPSTREAM_FRACTION      1.00000000                   
     21     MANNING                   0.03                      
     22     STATUS                   ACTIVE                     
     22     UPSTREAM_FRACTION      1.00000000                   
     22     MANNING                   0.03                      
     23     STATUS                   ACTIVE                     
     23     UPSTREAM_FRACTION      1.00000000                   
     23     MANNING                   0.03                      
     24     STATUS                   ACTIVE                     
     24     UPSTREAM_FRACTION      1.00000000                   
     24     MANNING                   0.03                      
     25     STATUS                   ACTIVE                     
     25     UPSTREAM_FRACTION      1.00000000                   
     25     MANNING                   0.03                      
     26     STATUS                   ACTIVE                     
     26     UPSTREAM_FRACTION      1.00000000                   
     26     MANNING                   0.03                      
     27     STATUS                   ACTIVE                     
     27     UPSTREAM_FRACTION      1.00000000                   
     27     MANNING                   0.03                      
     28     STATUS                   ACTIVE                     
     28     UPSTREAM_FRACTION      1.00000000                   
     28     MANNING                   0.03                      
     29     STATUS                   ACTIVE                     
     29     UPSTREAM_FRACTION      1.00000000                   
     29     MANNING                   0.03                      
     30     STATUS                   ACTIVE                     
     30     UPSTREAM_FRACTION      1.00000000                   
     30     MANNING                   0.03                      
     31     STATUS                   ACTIVE                     
     31     UPSTREAM_FRACTION      1.00000000                   
     31     MANNING                   0.03                      
     32     STATUS                   ACTIVE                     
     32     UPSTREAM_FRACTION      1.00000000                   
     32     MANNING                   0.03                      
     33     STATUS                   ACTIVE                     
     33     UPSTREAM_FRACTION      1.00000000                   
     33     MANNING                   0.03                      
     34     STATUS                   ACTIVE                     
     34     UPSTREAM_FRACTION      1.00000000                   
     34     MANNING                   0.03                      
     35     STATUS                   ACTIVE                     
     35     UPSTREAM_FRACTION      1.00000000                   
     35     MANNING                   0.03                      
     36     STATUS                   ACTIVE                     
     36     UPSTREAM_FRACTION      1.00000000                   
     36     MANNING                   0.03                      
     37     STATUS                   ACTIVE                     
     37     UPSTREAM_FRACTION      1.00000000                   
     37     MANNING                   0.03                      
     38     STATUS                   ACTIVE                     
     38     UPSTREAM_FRACTION      1.00000000                   
     38     MANNING                   0.03                      
     39     STATUS                   ACTIVE                     
     39     UPSTREAM_FRACTION      1.00000000                   
     39     MANNING                   0.03                      
     40     STATUS                   ACTIVE                     
     40     UPSTREAM_FRACTION      1.00000000                   
     40     MANNING                   0.03                      
     41     STATUS                   ACTIVE                     
     41     UPSTREAM_FRACTION      1.00000000                   
     41     MANNING                   0.03                      
     42     STATUS                   ACTIVE                     
     42     UPSTREAM_FRACTION      1.00000000                   
     42     MANNING                   0.03                      
     43     STATUS                   ACTIVE                     
     43     UPSTREAM_FRACTION      1.00000000                   
     43     MANNING                   0.03                      
     44     STATUS                   ACTIVE                     
     44     UPSTREAM_FRACTION      1.00000000                   
     44     MANNING                   0.03                      
     45     STATUS                   ACTIVE                     
     45     UPSTREAM_FRACTION      1.00000000                   
     45     MANNING                   0.03                      
     46     STATUS                   ACTIVE                     
     46     UPSTREAM_FRACTION      1.00000000                   
     46     MANNING                   0.03                      
     47     STATUS                   ACTIVE                     
     47     UPSTREAM_FRACTION      1.00000000                   
     47     MANNING                   0.03                      
     48     STATUS                   ACTIVE                     
     48     UPSTREAM_FRACTION      1.00000000                   
     48     MANNING                   0.03                      
     49     STATUS                   ACTIVE                     
     49     UPSTREAM_FRACTION      1.00000000                   
     49     MANNING                   0.03                      
     50     STATUS                   ACTIVE                     
     50     UPSTREAM_FRACTION      1.00000000                   
     50     MANNING                   0.03                      
     51     STATUS                   ACTIVE                     
     51     UPSTREAM_FRACTION      1.00000000                   
     51     MANNING                   0.03                      
     52     STATUS                   ACTIVE                     
     52     UPSTREAM_FRACTION      1.00000000                   
     52     MANNING                   0.03                      
     53     STATUS                   ACTIVE                     
     53     UPSTREAM_FRACTION      1.00000000                   
     53     MANNING                   0.03                      
     54     STATUS                   ACTIVE                     
     54     UPSTREAM_FRACTION      1.00000000                   
     54     MANNING                   0.03                      
     55     STATUS                   ACTIVE                     
     55     UPSTREAM_FRACTION      1.00000000                   
     55     MANNING                   0.03                      
     56     STATUS                   ACTIVE                     
     56     UPSTREAM_FRACTION      1.00000000                   
     56     MANNING                   0.03                      
     57     STATUS                   ACTIVE                     
     57     UPSTREAM_FRACTION      1.00000000                   
     57     MANNING                   0.03                      
     58     STATUS                   ACTIVE                     
     58     UPSTREAM_FRACTION      1.00000000                   
     58     MANNING                   0.03                      
     59     STATUS                   ACTIVE                     
     59     UPSTREAM_FRACTION      1.00000000                   
     59     MANNING                   0.03                      
     60     STATUS                   ACTIVE                     
     60     UPSTREAM_FRACTION      1.00000000                   
     60     MANNING                   0.03                      
     61     STATUS                   ACTIVE                     
     61     UPSTREAM_FRACTION      1.00000000                   
     61     MANNING                   0.03                      
     62     STATUS                   ACTIVE                     
     62     UPSTREAM_FRACTION      1.00000000                   
     62     MANNING                   0.03                      
     63     STATUS                   ACTIVE                     
     63     UPSTREAM_FRACTION      1.00000000                   
     63     MANNING                   0.03                      
     64     STATUS                   ACTIVE                     
     64     UPSTREAM_FRACTION      1.00000000                   
     64     MANNING                   0.03                      
     65     STATUS                   ACTIVE                     
     65     UPSTREAM_FRACTION      1.00000000                   
     65     MANNING                   0.03                      
     66     STATUS                   ACTIVE                     
     66     UPSTREAM_FRACTION      1.00000000                   
     66     MANNING                   0.03                      
     67     STATUS                   ACTIVE                     
     67     UPSTREAM_FRACTION      1.00000000                   
     67     MANNING                   0.03                      
     68     STATUS                   ACTIVE                     
     68     UPSTREAM_FRACTION      1.00000000                   
     68     MANNING                   0.03                      
     69     STATUS                   ACTIVE                     
     69     UPSTREAM_FRACTION      1.00000000                   
     69     MANNING                   0.03                      
     70     STATUS                   ACTIVE                     
     70     UPSTREAM_FRACTION      1.00000000                   
     70     MANNING                   0.03                      
     71     STATUS                   ACTIVE                     
     71     UPSTREAM_FRACTION      1.00000000                   
     71     MANNING                   0.03                      
     72     STATUS                   ACTIVE                     
     72     UPSTREAM_FRACTION      1.00000000                   
     72     MANNING                   0.03                      
     73     STATUS                   ACTIVE                     
     73     UPSTREAM_FRACTION      1.00000000                   
     73     MANNING                   0.03                      
     74     STATUS                   ACTIVE                     
     74     UPSTREAM_FRACTION      1.00000000                   
     74     MANNING                   0.03                      
     75     STATUS                   ACTIVE                     
     75     UPSTREAM_FRACTION      1.00000000                   
     75     MANNING                   0.03                      
     76     STATUS                   ACTIVE                     
     76     UPSTREAM_FRACTION      1.00000000                   
     76     MANNING                   0.03                      
     77     STATUS                   ACTIVE                     
     77     UPSTREAM_FRACTION      1.00000000                   
     77     MANNING                   0.03                      
     78     STATUS                   ACTIVE                     
     78     UPSTREAM_FRACTION      1.00000000                   
     78     MANNING                   0.03                      
     79     STATUS                   ACTIVE                     
     79     UPSTREAM_FRACTION      1.00000000                   
     79     MANNING                   0.03                      
     80     STATUS                   ACTIVE                     
     80     UPSTREAM_FRACTION      1.00000000                   
     80     MANNING                   0.03                      
     81     STATUS                   ACTIVE                     
     81     UPSTREAM_FRACTION      1.00000000                   
     81     MANNING                   0.03                      
     82     STATUS                   ACTIVE                     
     82     UPSTREAM_FRACTION      1.00000000                   
     82     MANNING                   0.03                      
     83     STATUS                   ACTIVE                     
     83     UPSTREAM_FRACTION      1.00000000                   
     83     MANNING                   0.03                      
     84     STATUS                   ACTIVE                     
     84     UPSTREAM_FRACTION      1.00000000                   
     84     MANNING                   0.03                      
     85     STATUS                   ACTIVE                     
     85     UPSTREAM_FRACTION      1.00000000                   
     85     MANNING                   0.03                      
     86     STATUS                   ACTIVE                     
     86     UPSTREAM_FRACTION      1.00000000                   
     86     MANNING                   0.03                      
     87     STATUS                   ACTIVE                     
     87     UPSTREAM_FRACTION      1.00000000                   
     87     MANNING                   0.03                      
     88     STATUS                   ACTIVE                     
     88     UPSTREAM_FRACTION      1.00000000                   
     88     MANNING                   0.03                      
     89     STATUS                   ACTIVE                     
     89     UPSTREAM_FRACTION      1.00000000                   
     89     MANNING                   0.03                      
     90     STATUS                   ACTIVE                     
     90     UPSTREAM_FRACTION      1.00000000                   
     90     MANNING                   0.03                      
     91     STATUS                   ACTIVE                     
     91     UPSTREAM_FRACTION      1.00000000                   
     91     MANNING                   0.03                      
     92     STATUS                   ACTIVE                     
     92     UPSTREAM_FRACTION      1.00000000                   
     92     MANNING                   0.03                      
     93     STATUS                   ACTIVE                     
     93     UPSTREAM_FRACTION      1.00000000                   
     93     MANNING                   0.03                      
     94     STATUS                   ACTIVE                     
     94     UPSTREAM_FRACTION      1.00000000                   
     94     MANNING                   0.03                      
     95     STATUS                   ACTIVE                     
     95     UPSTREAM_FRACTION      1.00000000                   
     95     MANNING                   0.03                      
     96     STATUS                   ACTIVE                     
     96     UPSTREAM_FRACTION      1.00000000                   
     96     MANNING                   0.03                      
     97     STATUS                   ACTIVE                     
     97     UPSTREAM_FRACTION      1.00000000                   
     97     MANNING                   0.03                      
     98     STATUS                   ACTIVE                     
     98     UPSTREAM_FRACTION      1.00000000                   
     98     MANNING                   0.03                      
     99     STATUS                   ACTIVE                     
     99     UPSTREAM_FRACTION      1.00000000                   
     99     MANNING                   0.03                      
    100     STATUS                   ACTIVE                     
    100     UPSTREAM_FRACTION      1.00000000                   
    100     MANNING                   0.03                      
    101     STATUS                   ACTIVE                     
    101     UPSTREAM_FRACTION      1.00000000                   
    101     MANNING                   0.03                      
    102     STATUS                   ACTIVE                     
    102     UPSTREAM_FRACTION      1.00000000                   
    102     MANNING                   0.03                      
    103     STATUS                   ACTIVE                     
    103     UPSTREAM_FRACTION      1.00000000                   
    103     MANNING                   0.03                      
    104     STATUS                   ACTIVE                     
    104     UPSTREAM_FRACTION      1.00000000                   
    104     MANNING                   0.03                      
    105     STATUS                   ACTIVE                     
    105     UPSTREAM_FRACTION      1.00000000                   
    105     MANNING                   0.03                      
    106     STATUS                   ACTIVE                     
    106     UPSTREAM_FRACTION      1.00000000                   
    106     MANNING                   0.03                      
    107     STATUS                   ACTIVE                     
    107     UPSTREAM_FRACTION      1.00000000                   
    107     MANNING                   0.03                      
    108     STATUS                   ACTIVE                     
    108     UPSTREAM_FRACTION      1.00000000                   
    108     MANNING                   0.03                      
    109     STATUS                   ACTIVE                     
    109     UPSTREAM_FRACTION      1.00000000                   
    109     MANNING                   0.03                      
    110     STATUS                   ACTIVE                     
    110     UPSTREAM_FRACTION      1.00000000                   
    110     MANNING                   0.03                      
    111     STATUS                   ACTIVE                     
    111     UPSTREAM_FRACTION      1.00000000                   
    111     MANNING                   0.03                      
    112     STATUS                   ACTIVE                     
    112     UPSTREAM_FRACTION      1.00000000                   
    112     MANNING                   0.03                      
    113     STATUS                   ACTIVE                     
    113     UPSTREAM_FRACTION      1.00000000                   
    113     MANNING                   0.03                      
    114     STATUS                   ACTIVE                     
    114     UPSTREAM_FRACTION      1.00000000                   
    114     MANNING                   0.03                      
    115     STATUS                   ACTIVE                     
    115     UPSTREAM_FRACTION      1.00000000                   
    115     MANNING                   0.03                      
    116     STATUS                   ACTIVE                     
    116     UPSTREAM_FRACTION      1.00000000                   
    116     MANNING                   0.03                      
    117     STATUS                   ACTIVE                     
    117     UPSTREAM_FRACTION      1.00000000                   
    117     MANNING                   0.03                      
    118     STATUS                   ACTIVE                     
    118     UPSTREAM_FRACTION      1.00000000                   
    118     MANNING                   0.03                      
    119     STATUS                   ACTIVE                     
    119     UPSTREAM_FRACTION      1.00000000                   
    119     MANNING                   0.03                      
    120     STATUS                   ACTIVE                     
    120     UPSTREAM_FRACTION      1.00000000                   
    120     MANNING                   0.03                      
    121     STATUS                   ACTIVE                     
    121     UPSTREAM_FRACTION      1.00000000                   
    121     MANNING                   0.03                      
    122     STATUS                   ACTIVE                     
    122     UPSTREAM_FRACTION      1.00000000                   
    122     MANNING                   0.03                      
    123     STATUS                   ACTIVE                     
    123     UPSTREAM_FRACTION      1.00000000                   
    123     MANNING                   0.03                      
    124     STATUS                   ACTIVE                     
    124     UPSTREAM_FRACTION      1.00000000                   
    124     MANNING                   0.03                      
    125     STATUS                   ACTIVE                     
    125     UPSTREAM_FRACTION      1.00000000                   
    125     MANNING                   0.03                      
    126     STATUS                   ACTIVE                     
    126     UPSTREAM_FRACTION      1.00000000                   
    126     MANNING                   0.03                      
    127     STATUS                   ACTIVE                     
    127     UPSTREAM_FRACTION      1.00000000                   
    127     MANNING                   0.03                      
    128     STATUS                   ACTIVE                     
    128     UPSTREAM_FRACTION      1.00000000                   
    128     MANNING                   0.03                      
    129     STATUS                   ACTIVE                     
    129     UPSTREAM_FRACTION      1.00000000                   
    129     MANNING                   0.03                      
    130     STATUS                   ACTIVE                     
    130     UPSTREAM_FRACTION      1.00000000                   
    130     MANNING                   0.03                      
    131     STATUS                   ACTIVE                     
    131     UPSTREAM_FRACTION      1.00000000                   
    131     MANNING                   0.03                      
    132     STATUS                   ACTIVE                     
    132     UPSTREAM_FRACTION      1.00000000                   
    132     MANNING                   0.03                      
    133     STATUS                   ACTIVE                     
    133     UPSTREAM_FRACTION      1.00000000                   
    133     MANNING                   0.03                      
    134     STATUS                   ACTIVE                     
    134     UPSTREAM_FRACTION      1.00000000                   
    134     MANNING                   0.03                      
    135     STATUS                   ACTIVE                     
    135     UPSTREAM_FRACTION      1.00000000                   
    135     MANNING                   0.03                      
    136     STATUS                   ACTIVE                     
    136     UPSTREAM_FRACTION      1.00000000                   
    136     MANNING                   0.03                      
    137     STATUS                   ACTIVE                     
    137     UPSTREAM_FRACTION      1.00000000                   
    137     MANNING                   0.03                      
    138     STATUS                   ACTIVE                     
    138     UPSTREAM_FRACTION      1.00000000                   
    138     MANNING                   0.03                      
    139     STATUS                   ACTIVE                     
    139     UPSTREAM_FRACTION      1.00000000                   
    139     MANNING                   0.03                      
    140     STATUS                   ACTIVE                     
    140     UPSTREAM_FRACTION      1.00000000                   
    140     MANNING                   0.03                      
    141     STATUS                   ACTIVE                     
    141     UPSTREAM_FRACTION      1.00000000                   
    141     MANNING                   0.03                      
    142     STATUS                   ACTIVE                     
    142     UPSTREAM_FRACTION      1.00000000                   
    142     MANNING                   0.03                      
    143     STATUS                   ACTIVE                     
    143     UPSTREAM_FRACTION      1.00000000                   
    143     MANNING                   0.03                      
    144     STATUS                   ACTIVE                     
    144     UPSTREAM_FRACTION      1.00000000                   
    144     MANNING                   0.03                      
    145     STATUS                   ACTIVE                     
    145     UPSTREAM_FRACTION      1.00000000                   
    145     MANNING                   0.03                      
    146     STATUS                   ACTIVE                     
    146     UPSTREAM_FRACTION      1.00000000                   
    146     MANNING                   0.03                      
    147     STATUS                   ACTIVE                     
    147     UPSTREAM_FRACTION      1.00000000                   
    147     MANNING                   0.03                      
    148     STATUS                   ACTIVE                     
    148     UPSTREAM_FRACTION      1.00000000                   
    148     MANNING                   0.03                      
    149     STATUS                   ACTIVE                     
    149     UPSTREAM_FRACTION      1.00000000                   
    149     MANNING                   0.03                      
    150     STATUS                   ACTIVE                     
    150     UPSTREAM_FRACTION      1.00000000                   
    150     MANNING                   0.03                      
    151     STATUS                   ACTIVE                     
    151     UPSTREAM_FRACTION      1.00000000                   
    151     MANNING                   0.03                      
    152     STATUS                   ACTIVE                     
    152     UPSTREAM_FRACTION      1.00000000                   
    152     MANNING                   0.03                      
    153     STATUS                   ACTIVE                     
    153     UPSTREAM_FRACTION      1.00000000                   
    153     MANNING                   0.03                      
    154     STATUS                   ACTIVE                     
    154     UPSTREAM_FRACTION      1.00000000                   
    154     MANNING                   0.03                      
    155     STATUS                   ACTIVE                     
    155     UPSTREAM_FRACTION      1.00000000                   
    155     MANNING                   0.03                      
    156     STATUS                   ACTIVE                     
    156     UPSTREAM_FRACTION      1.00000000                   
    156     MANNING                   0.03                      
    157     STATUS                   ACTIVE                     
    157     UPSTREAM_FRACTION      1.00000000                   
    157     MANNING                   0.03                      
    158     STATUS                   ACTIVE                     
    158     UPSTREAM_FRACTION      1.00000000                   
    158     MANNING                   0.03                      
    159     STATUS                   ACTIVE                     
    159     UPSTREAM_FRACTION      1.00000000                   
    159     MANNING                   0.03                      
    160     STATUS                   ACTIVE                     
    160     UPSTREAM_FRACTION      1.00000000                   
    160     MANNING                   0.03                      
    161     STATUS                   ACTIVE                     
    161     UPSTREAM_FRACTION      1.00000000                   
    161     MANNING                   0.03                      
    162     STATUS                   ACTIVE                     
    162     UPSTREAM_FRACTION      1.00000000                   
    162     MANNING                   0.03                      
    163     STATUS                   ACTIVE                     
    163     UPSTREAM_FRACTION      1.00000000                   
    163     MANNING                   0.03                      
    164     STATUS                   ACTIVE                     
    164     UPSTREAM_FRACTION      1.00000000                   
    164     MANNING                   0.03                      
    165     STATUS                   ACTIVE                     
    165     UPSTREAM_FRACTION      1.00000000                   
    165     MANNING                   0.03                      
    166     STATUS                   ACTIVE                     
    166     UPSTREAM_FRACTION      1.00000000                   
    166     MANNING                   0.03                      
    167     STATUS                   ACTIVE                     
    167     UPSTREAM_FRACTION      1.00000000                   
    167     MANNING                   0.03                      
    168     STATUS                   ACTIVE                     
    168     UPSTREAM_FRACTION      1.00000000                   
    168     MANNING                   0.03                      
    169     STATUS                   ACTIVE                     
    169     UPSTREAM_FRACTION      1.00000000                   
    169     MANNING                   0.03                      
    170     STATUS                   ACTIVE                     
    170     UPSTREAM_FRACTION      1.00000000                   
    170     MANNING                   0.03                      
    171     STATUS                   ACTIVE                     
    171     UPSTREAM_FRACTION      1.00000000                   
    171     MANNING                   0.03                      
    172     STATUS                   ACTIVE                     
    172     UPSTREAM_FRACTION      1.00000000                   
    172     MANNING                   0.03                      
    173     STATUS                   ACTIVE                     
    173     UPSTREAM_FRACTION      1.00000000                   
    173     MANNING                   0.03                      
    174     STATUS                   ACTIVE                     
    174     UPSTREAM_FRACTION      1.00000000                   
    174     MANNING                   0.03                      
    175     STATUS                   ACTIVE                     
    175     UPSTREAM_FRACTION      1.00000000                   
    175     MANNING                   0.03                      
    176     STATUS                   ACTIVE                     
    176     UPSTREAM_FRACTION      1.00000000                   
    176     MANNING                   0.03                      
    177     STATUS                   ACTIVE                     
    177     UPSTREAM_FRACTION      1.00000000                   
    177     MANNING                   0.03                      
    178     STATUS                   ACTIVE                     
    178     UPSTREAM_FRACTION      1.00000000                   
    178     MANNING                   0.03                      
    179     STATUS                   ACTIVE                     
    179     UPSTREAM_FRACTION      1.00000000                   
    179     MANNING                   0.03                      
    180     STATUS                   ACTIVE                     
    180     UPSTREAM_FRACTION      1.00000000                   
    180     MANNING                   0.03                      
    181     STATUS                   ACTIVE                     
    181     UPSTREAM_FRACTION      1.00000000                   
    181     MANNING                   0.03                      
    182     STATUS                   ACTIVE                     
    182     UPSTREAM_FRACTION      1.00000000                   
    182     MANNING                   0.03                      
    183     STATUS                   ACTIVE                     
    183     UPSTREAM_FRACTION      1.00000000                   
    183     MANNING                   0.03                      
    184     STATUS                   ACTIVE                     
    184     UPSTREAM_FRACTION      1.00000000                   
    184     MANNING                   0.03                      
    185     STATUS                   ACTIVE                     
    185     UPSTREAM_FRACTION      1.00000000                   
    185     MANNING                   0.03                      
    186     STATUS                   ACTIVE                     
    186     UPSTREAM_FRACTION      1.00000000                   
    186     MANNING                   0.03                      
    187     STATUS                   ACTIVE                     
    187     UPSTREAM_FRACTION      1.00000000                   
    187     MANNING                   0.03                      
    188     STATUS                   ACTIVE                     
    188     UPSTREAM_FRACTION      1.00000000                   
    188     MANNING                   0.03                      
    189     STATUS                   ACTIVE                     
    189     UPSTREAM_FRACTION      1.00000000                   
    189     MANNING                   0.03                      
    190     STATUS                   ACTIVE                     
    190     UPSTREAM_FRACTION      1.00000000                   
    190     MANNING                   0.03                      
    191     STATUS                   ACTIVE                     
    191     UPSTREAM_FRACTION      1.00000000                   
    191     MANNING                   0.03                      
    192     STATUS                   ACTIVE                     
    192     UPSTREAM_FRACTION      1.00000000                   
    192     MANNING                   0.03                      
    193     STATUS                   ACTIVE                     
    193     UPSTREAM_FRACTION      1.00000000                   
    193     MANNING                   0.03                      
    194     STATUS                   ACTIVE                     
    194     UPSTREAM_FRACTION      1.00000000                   
    194     MANNING                   0.03                      
    195     STATUS                   ACTIVE                     
    195     UPSTREAM_FRACTION      1.00000000                   
    195     MANNING                   0.03                      
    196     STATUS                   ACTIVE                     
    196     UPSTREAM_FRACTION      1.00000000                   
    196     MANNING                   0.03                      
    197     STATUS                   ACTIVE                     
    197     UPSTREAM_FRACTION      1.00000000                   
    197     MANNING                   0.03                      
    198     STATUS                   ACTIVE                     
    198     UPSTREAM_FRACTION      1.00000000                   
    198     MANNING                   0.03                      
    199     STATUS                   ACTIVE                     
    199     UPSTREAM_FRACTION      1.00000000                   
    199     MANNING                   0.03                      
    200     STATUS                   ACTIVE                     
    200     UPSTREAM_FRACTION      1.00000000                   
    200     MANNING                   0.03                      
    201     STATUS                   ACTIVE                     
    201     UPSTREAM_FRACTION      1.00000000                   
    201     MANNING                   0.03                      
    202     STATUS                   ACTIVE                     
    202     UPSTREAM_FRACTION      1.00000000                   
    202     MANNING                   0.03                      
    203     STATUS                   ACTIVE                     
    203     UPSTREAM_FRACTION      1.00000000                   
    203     MANNING                   0.03                      
    204     STATUS                   ACTIVE                     
    204     UPSTREAM_FRACTION      1.00000000                   
    204     MANNING                   0.03                      
    205     STATUS                   ACTIVE                     
    205     UPSTREAM_FRACTION      1.00000000                   
    205     MANNING                   0.03                      
    206     STATUS                   ACTIVE                     
    206     UPSTREAM_FRACTION      1.00000000                   
    206     MANNING                   0.03                      
    207     STATUS                   ACTIVE                     
    207     UPSTREAM_FRACTION      1.00000000                   
    207     MANNING                   0.03                      
    208     STATUS                   ACTIVE                     
    208     UPSTREAM_FRACTION      1.00000000                   
    208     MANNING                   0.03                      
    209     STATUS                   ACTIVE                     
    209     UPSTREAM_FRACTION      1.00000000                   
    209     MANNING                   0.03                      
    210     STATUS                   ACTIVE                     
    210     UPSTREAM_FRACTION      1.00000000                   
    210     MANNING                   0.03                      
    211     STATUS                   ACTIVE                     
    211     UPSTREAM_FRACTION      1.00000000                   
    211     MANNING                   0.03                      
    212     STATUS                   ACTIVE                     
    212     UPSTREAM_FRACTION      1.00000000                   
    212     MANNING                   0.03                      
    213     STATUS                   ACTIVE                     
    213     UPSTREAM_FRACTION      1.00000000                   
    213     MANNING                   0.03                      
    214     STATUS                   ACTIVE                     
    214     UPSTREAM_FRACTION      1.00000000                   
    214     MANNING                   0.03                      
    215     STATUS                   ACTIVE                     
    215     UPSTREAM_FRACTION      1.00000000                   
    215     MANNING                   0.03                      
    216     STATUS                   ACTIVE                     
    216     UPSTREAM_FRACTION      1.00000000                   
    216     MANNING                   0.03                      
    217     STATUS                   ACTIVE                     
    217     UPSTREAM_FRACTION      1.00000000                   
    217     MANNING                   0.03                      
    218     STATUS                   ACTIVE                     
    218     UPSTREAM_FRACTION      1.00000000                   
    218     MANNING                   0.03                      
    219     STATUS                   ACTIVE                     
    219     UPSTREAM_FRACTION      1.00000000                   
    219     MANNING                   0.03                      
    220     STATUS                   ACTIVE                     
    220     UPSTREAM_FRACTION      1.00000000                   
    220     MANNING                   0.03                      
    221     STATUS                   ACTIVE                     
    221     UPSTREAM_FRACTION      1.00000000                   
    221     MANNING                   0.03                      
    222     STATUS                   ACTIVE                     
    222     UPSTREAM_FRACTION      1.00000000                   
    222     MANNING                   0.03                      
    223     STATUS                   ACTIVE                     
    223     UPSTREAM_FRACTION      1.00000000                   
    223     MANNING                   0.03                      
    224     STATUS                   ACTIVE                     
    224     UPSTREAM_FRACTION      1.00000000                   
    224     MANNING                   0.03                      
    225     STATUS                   ACTIVE                     
    225     UPSTREAM_FRACTION      1.00000000                   
    225     MANNING                   0.03                      
    226     STATUS                   ACTIVE                     
    226     UPSTREAM_FRACTION      1.00000000                   
    226     MANNING                   0.03                      
    227     STATUS                   ACTIVE                     
    227     UPSTREAM_FRACTION      1.00000000                   
    227     MANNING                   0.03                      
    228     STATUS                   ACTIVE                     
    228     UPSTREAM_FRACTION      1.00000000                   
    228     MANNING                   0.03                      
    229     STATUS                   ACTIVE                     
    229     UPSTREAM_FRACTION      1.00000000                   
    229     MANNING                   0.03                      
    230     STATUS                   ACTIVE                     
    230     UPSTREAM_FRACTION      1.00000000                   
    230     MANNING                   0.03                      
    231     STATUS                   ACTIVE                     
    231     UPSTREAM_FRACTION      1.00000000                   
    231     MANNING                   0.03                      
    232     STATUS                   ACTIVE                     
    232     UPSTREAM_FRACTION      1.00000000                   
    232     MANNING                   0.03                      
    233     STATUS                   ACTIVE                     
    233     UPSTREAM_FRACTION      1.00000000                   
    233     MANNING                   0.03                      
    234     STATUS                   ACTIVE                     
    234     UPSTREAM_FRACTION      1.00000000                   
    234     MANNING                   0.03                      
    235     STATUS                   ACTIVE                     
    235     UPSTREAM_FRACTION      1.00000000                   
    235     MANNING                   0.03                      
    236     STATUS                   ACTIVE                     
    236     UPSTREAM_FRACTION      1.00000000                   
    236     MANNING                   0.03                      
    237     STATUS                   ACTIVE                     
    237     UPSTREAM_FRACTION      1.00000000                   
    237     MANNING                   0.03                      
    238     STATUS                   ACTIVE                     
    238     UPSTREAM_FRACTION      1.00000000                   
    238     MANNING                   0.03                      
    239     STATUS                   ACTIVE                     
    239     UPSTREAM_FRACTION      1.00000000                   
    239     MANNING                   0.03                      
    240     STATUS                   ACTIVE                     
    240     UPSTREAM_FRACTION      1.00000000                   
    240     MANNING                   0.03                      
    241     STATUS                   ACTIVE                     
    241     UPSTREAM_FRACTION      1.00000000                   
    241     MANNING                   0.03                      
    242     STATUS                   ACTIVE                     
    242     UPSTREAM_FRACTION      1.00000000                   
    242     MANNING                   0.03                      
    243     STATUS                   ACTIVE                     
    243     UPSTREAM_FRACTION      1.00000000                   
    243     MANNING                   0.03                      
    244     STATUS                   ACTIVE                     
    244     UPSTREAM_FRACTION      1.00000000                   
    244     MANNING                   0.03                      
    245     STATUS                   ACTIVE                     
    245     UPSTREAM_FRACTION      1.00000000                   
    245     MANNING                   0.03                      
    246     STATUS                   ACTIVE                     
    246     UPSTREAM_FRACTION      1.00000000                   
    246     MANNING                   0.03                      
    247     STATUS                   ACTIVE                     
    247     UPSTREAM_FRACTION      1.00000000                   
    247     MANNING                   0.03                      
    248     STATUS                   ACTIVE                     
    248     UPSTREAM_FRACTION      1.00000000                   
    248     MANNING                   0.03                      
    249     STATUS                   ACTIVE                     
    249     UPSTREAM_FRACTION      1.00000000                   
    249     MANNING                   0.03                      
    250     STATUS                   ACTIVE                     
    250     UPSTREAM_FRACTION      1.00000000                   
    250     MANNING                   0.03                      
    251     STATUS                   ACTIVE                     
    251     UPSTREAM_FRACTION      1.00000000                   
    251     MANNING                   0.03                      
    252     STATUS                   ACTIVE                     
    252     UPSTREAM_FRACTION      1.00000000                   
    252     MANNING                   0.03                      
    253     STATUS                   ACTIVE                     
    253     UPSTREAM_FRACTION      1.00000000                   
    253     MANNING                   0.03                      
    254     STATUS                   ACTIVE                     
    254     UPSTREAM_FRACTION      1.00000000                   
    254     MANNING                   0.03                      
    255     STATUS                   ACTIVE                     
    255     UPSTREAM_FRACTION      1.00000000                   
    255     MANNING                   0.03                      
    256     STATUS                   ACTIVE                     
    256     UPSTREAM_FRACTION      1.00000000                   
    256     MANNING                   0.03                      
    257     STATUS                   ACTIVE                     
    257     UPSTREAM_FRACTION      1.00000000                   
    257     MANNING                   0.03                      
    258     STATUS                   ACTIVE                     
    258     UPSTREAM_FRACTION      1.00000000                   
    258     MANNING                   0.03                      
    259     STATUS                   ACTIVE                     
    259     UPSTREAM_FRACTION      1.00000000                   
    259     MANNING                   0.03                      
    260     STATUS                   ACTIVE                     
    260     UPSTREAM_FRACTION      1.00000000                   
    260     MANNING                   0.03                      
    261     STATUS                   ACTIVE                     
    261     UPSTREAM_FRACTION      1.00000000                   
    261     MANNING                   0.03                      
    262     STATUS                   ACTIVE                     
    262     UPSTREAM_FRACTION      1.00000000                   
    262     MANNING                   0.03                      
    263     STATUS                   ACTIVE                     
    263     UPSTREAM_FRACTION      1.00000000                   
    263     MANNING                   0.03                      
    264     STATUS                   ACTIVE                     
    264     UPSTREAM_FRACTION      1.00000000                   
    264     MANNING                   0.03                      
    265     STATUS                   ACTIVE                     
    265     UPSTREAM_FRACTION      1.00000000                   
    265     MANNING                   0.03                      
    266     STATUS                   ACTIVE                     
    266     UPSTREAM_FRACTION      1.00000000                   
    266     MANNING                   0.03                      
 ---------------------------------------------------------------



 SFR PACKAGE (SFR) CONNECTED REACH UPSTREAM FRACTION DATA
 ----------------------------------
            DOWNSTREAM             
   REACH     REACH 1    FRACTION 1 
 ----------------------------------
     1          2       1.0000     
     2          3       1.0000     
     3          4       1.0000     
     4          5       1.0000     
     5          6       1.0000     
     6          7       1.0000     
     7          8       1.0000     
     8          9       1.0000     
     9          10      1.0000     
     10         11      1.0000     
     11         12      1.0000     
     12         13      1.0000     
     13         14      1.0000     
     14         15      1.0000     
     15         16      1.0000     
     16         17      1.0000     
     17         18      1.0000     
     18         19      1.0000     
     19         20      1.0000     
     20         21      1.0000     
     21         22      1.0000     
     22         23      1.0000     
     23         24      1.0000     
     24         25      1.0000     
     25         26      1.0000     
     26         27      1.0000     
     27         28      1.0000     
     28         29      1.0000     
     29         30      1.0000     
     30         31      1.0000     
     31         32      1.0000     
     32         33      1.0000     
     33         34      1.0000     
     34         35      1.0000     
     35         36      1.0000     
     36         37      1.0000     
     37         38      1.0000     
     38         39      1.0000     
     39         40      1.0000     
     40         41      1.0000     
     41         42      1.0000     
     42         43      1.0000     
     43         44      1.0000     
     44         45      1.0000     
     45         46      1.0000     
     46         47      1.0000     
     47         48      1.0000     
     48         49      1.0000     
     49         50      1.0000     
     50         51      1.0000     
     51         52      1.0000     
     52         53      1.0000     
     53         54      1.0000     
     54         55      1.0000     
     55         56      1.0000     
     56         57      1.0000     
     57         58      1.0000     
     58         59      1.0000     
     59         60      1.0000     
     60         61      1.0000     
     61         62      1.0000     
     62         63      1.0000     
     63         64      1.0000     
     64         65      1.0000     
     65         66      1.0000     
     66         67      1.0000     
     67         68      1.0000     
     68         69      1.0000     
     69         70      1.0000     
     70         71      1.0000     
     71         72      1.0000     
     72         73      1.0000     
     73         74      1.0000     
     74         75      1.0000     
     75         76      1.0000     
     76         77      1.0000     
     77         78      1.0000     
     78         79      1.0000     
     79         80      1.0000     
     80         81      1.0000     
     81         82      1.0000     
     82         83      1.0000     
     83         84      1.0000     
     84         85      1.0000     
     85         86      1.0000     
     86         87      1.0000     
     87         88      1.0000     
     88         89      1.0000     
     89         90      1.0000     
     90         91      1.0000     
     91         92      1.0000     
     92         93      1.0000     
     93         94      1.0000     
     94         95      1.0000     
     95         96      1.0000     
     96         97      1.0000     
     97         98      1.0000     
     98         99      1.0000     
     99        100      1.0000     
    100        101      1.0000     
    101        102      1.0000     
    102        103      1.0000     
    103        104      1.0000     
    104        105      1.0000     
    105        106      1.0000     
    106        107      1.0000     
    107        108      1.0000     
    108        109      1.0000     
    109        110      1.0000     
    110        111      1.0000     
    111        112      1.0000     
    112        113      1.0000     
    113        114      1.0000     
    114        115      1.0000     
    115        116      1.0000     
    116        117      1.0000     
    117        118      1.0000     
    118        119      1.0000     
    119        120      1.0000     
    120        121      1.0000     
    121        122      1.0000     
    122        123      1.0000     
    123        124      1.0000     
    124        125      1.0000     
    125        126      1.0000     
    126        127      1.0000     
    127        128      1.0000     
    128        129      1.0000     
    129        130      1.0000     
    130        131      1.0000     
    131        132      1.0000     
    132        133      1.0000     
    133        134      1.0000     
    134        135      1.0000     
    135        136      1.0000     
    136        137      1.0000     
    137        138      1.0000     
    138        139      1.0000     
    139        140      1.0000     
    140        141      1.0000     
    141        142      1.0000     
    142        143      1.0000     
    143        144      1.0000     
    144        145      1.0000     
    145        146      1.0000     
    146        147      1.0000     
    147        148      1.0000     
    148        149      1.0000     
    149        150      1.0000     
    150        151      1.0000     
    151        152      1.0000     
    152        153      1.0000     
    153        154      1.0000     
    154        155      1.0000     
    155        156      1.0000     
    156        157      1.0000     
    157        158      1.0000     
    158        159      1.0000     
    159        160      1.0000     
    160        161      1.0000     
    161        162      1.0000     
    162        163      1.0000     
    163        164      1.0000     
    164        165      1.0000     
    165        166      1.0000     
    166        167      1.0000     
    167        168      1.0000     
    168        169      1.0000     
    169        170      1.0000     
    170        171      1.0000     
    171        172      1.0000     
    172        173      1.0000     
    173        174      1.0000     
    174        175      1.0000     
    175        176      1.0000     
    176        177      1.0000     
    177        178      1.0000     
    178        179      1.0000     
    179        180      1.0000     
    180        181      1.0000     
    181        182      1.0000     
    182        183      1.0000     
    183        184      1.0000     
    184        185      1.0000     
    185        186      1.0000     
    186        187      1.0000     
    187        188      1.0000     
    188        189      1.0000     
    189        190      1.0000     
    190        191      1.0000     
    191        192      1.0000     
    192        193      1.0000     
    193        194      1.0000     
    194        195      1.0000     
    195        196      1.0000     
    196        197      1.0000     
    197        198      1.0000     
    198        199      1.0000     
    199        200      1.0000     
    200        201      1.0000     
    201        202      1.0000     
    202        203      1.0000     
    203        204      1.0000     
    204        205      1.0000     
    205        206      1.0000     
    206        207      1.0000     
    207        208      1.0000     
    208        209      1.0000     
    209        210      1.0000     
    210        211      1.0000     
    211        212      1.0000     
    212        213      1.0000     
    213        214      1.0000     
    214        215      1.0000     
    215        216      1.0000     
    216        217      1.0000     
    217        218      1.0000     
    218        219      1.0000     
    219        220      1.0000     
    220        221      1.0000     
    221        222      1.0000     
    222        223      1.0000     
    223        224      1.0000     
    224        225      1.0000     
    225        226      1.0000     
    226        227      1.0000     
    227        228      1.0000     
    228        229      1.0000     
    229        230      1.0000     
    230        231      1.0000     
    231        232      1.0000     
    232        233      1.0000     
    233        234      1.0000     
    234        235      1.0000     
    235        236      1.0000     
    236        237      1.0000     
    237        238      1.0000     
    238        239      1.0000     
    239        240      1.0000     
    240        241      1.0000     
    241        242      1.0000     
    242        243      1.0000     
    243        244      1.0000     
    244        245      1.0000     
    245        246      1.0000     
    246        247      1.0000     
    247        248      1.0000     
    248        249      1.0000     
    249        250      1.0000     
    250        251      1.0000     
    251        252      1.0000     
    252        253      1.0000     
    253        254      1.0000     
    254        255      1.0000     
    255        256      1.0000     
    256        257      1.0000     
    257        258      1.0000     
    258        259      1.0000     
    259        260      1.0000     
    260        261      1.0000     
    261        262      1.0000     
    262        263      1.0000     
    263        264      1.0000     
    264        265      1.0000     
    265        266      1.0000     
    266                            
 ----------------------------------


 UBDSV1 SAVING           STO-SS ON UNIT   1019 AT TIME STEP      1, STRESS PERIOD      1
 UBDSV1 SAVING           STO-SY ON UNIT   1019 AT TIME STEP      1, STRESS PERIOD      1
 UBDSV1 SAVING     FLOW-JA-FACE ON UNIT   1019 AT TIME STEP      1, STRESS PERIOD      1
 UBDSV06 SAVING              GHB IN MODEL EXPERIMENTAL     PACKAGE EXPERIMENTAL    CONNECTED TO MODEL EXPERIMENTAL     PACKAGE GHB              ON UNIT   1019 AT TIME STEP      1, STRESS PERIOD      1

 GHB PACKAGE (GHB) FLOW RATES   PERIOD      1   STEP        1
 --------------------------------------------------------------------
   NUMBER   CELLID                    RATE       NAME                
 --------------------------------------------------------------------
     1      (1,830)               68.803676      RED                 
     2      (1,913)               70.823283      RED                 
     3      (1,996)               73.301074      RED                 
     4      (1,1076)              75.454847      RED                 
     5      (1,1156)              77.065735      RED                 
     6      (1,1239)              78.992110      RED                 
     7      (1,1319)              80.628675      RED                 
     8      (1,1398)              81.283757      RED                 
     9      (1,1485)              81.062131      RED                 
     10     (1,1580)              77.814289      RED                 
     11     (1,1692)              77.361785      RED                 
     12     (1,1776)              73.667431      RED                 
     13     (1,1853)              72.366372      RED                 
     14     (1,1929)              74.690684      RED                 
     15     (1,2004)              75.003898      RED                 
     16     (1,2075)              74.359773      RED                 
     17     (1,2145)              74.328422      RED                 
     18     (1,2214)              73.982856      RED                 
     19     (1,2309)              74.507404      RED                 
     20     (1,2403)              74.553924      RED                 
     21     (1,2487)              74.003347      RED                 
     22     (1,2564)              68.370222      RED                 
     23     (1,2565)              68.199912      RED                 
     24     (1,2635)              75.341007      RED                 
     25     (1,2704)              76.837883      RED                 
     26     (1,2784)              77.174324      RED                 
     27     (1,428)               190.38648      ORANGERED           
     28     (1,504)               163.91170      ORANGERED           
     29     (1,584)               144.97073      ORANGERED           
     30     (1,665)               130.44603      ORANGERED           
     31     (1,747)               119.53179      ORANGERED           
     32     (1,312)               164.18528      ORANGE              
     33     (1,313)               144.96561      ORANGE              
     34     (1,314)               130.36737      ORANGE              
     35     (1,315)               118.93434      ORANGE              
     36     (1,316)               109.19144      ORANGE              
     37     (1,317)               100.43271      ORANGE              
     38     (1,318)               92.408541      ORANGE              
     39     (1,319)               84.927803      ORANGE              
     40     (1,320)               78.005100      ORANGE              
     41     (1,321)               71.311707      ORANGE              
     42     (1,322)               64.683071      ORANGE              
     43     (1,323)               58.019520      ORANGE              
     44     (1,324)               51.196126      ORANGE              
     45     (1,325)               44.551595      ORANGE              
     46     (1,326)               37.904751      ORANGE              
     47     (1,327)               31.189973      ORANGE              
     48     (1,328)               24.168958      ORANGE              
     49     (1,329)               17.671556      ORANGE              
     50     (1,330)               11.422507      ORANGE              
     51     (1,331)               5.4869220      ORANGE              
     52     (1,332)              -0.34976966     ORANGE              
     53     (1,333)              -5.8603729      ORANGE              
     54     (1,334)              -11.730616      ORANGE              
     55     (1,335)              -7.6257922      ORANGE              
     56     (1,336)              -3.2762487      ORANGE              
     57     (1,337)              -5.6816893      ORANGE              
     58     (1,338)              -12.765550      ORANGE              
     59     (1,339)              -18.904002      ORANGE              
     60     (1,340)              -16.324127      ORANGE              
     61     (1,341)              -15.165602      ORANGE              
     62     (1,342)              -24.090298      ORANGE              
     63     (1,343)              -26.585884      ORANGE              
     64     (1,344)              -27.420150      ORANGE              
     65     (1,345)              -41.916598      ORANGE              
     66     (1,346)              -68.569159      ORANGE              
     67     (1,347)              -60.574470      ORANGE              
     68     (1,51)                82.241778      GOLD                
     69     (1,84)                76.009468      GOLD                
     70     (1,116)               69.763641      GOLD                
     71     (1,150)               63.148782      GOLD                
     72     (1,186)               55.143947      GOLD                
     73     (1,224)               44.603365      GOLD                
     74     (1,264)               28.857737      GOLD                
     75     (1,1)                 61.339991      YELLOWGREEN         
     76     (1,2)                 62.475460      YELLOWGREEN         
     77     (1,3)                 65.459654      YELLOWGREEN         
     78     (1,4)                 71.773814      YELLOWGREEN         
     79     (1,5)                 76.166356      YELLOWGREEN         
     80     (1,6)                 76.814483      YELLOWGREEN         
     81     (1,9)                 78.295771      YELLOWGREEN         
     82     (1,10)                70.627716      YELLOWGREEN         
     83     (1,11)                63.989227      YELLOWGREEN         
     84     (1,12)                58.059471      YELLOWGREEN         
     85     (1,13)                52.608903      YELLOWGREEN         
     86     (1,14)                47.397939      YELLOWGREEN         
     87     (1,15)                42.445009      YELLOWGREEN         
     88     (1,16)                37.673663      YELLOWGREEN         
     89     (1,17)                32.957519      YELLOWGREEN         
     90     (1,18)                28.018924      YELLOWGREEN         
     91     (1,19)                23.147302      YELLOWGREEN         
     92     (1,20)                18.799690      YELLOWGREEN         
     93     (1,21)                14.625121      YELLOWGREEN         
     94     (1,22)                10.681417      YELLOWGREEN         
     95     (1,23)                7.5578518      YELLOWGREEN         
     96     (1,52)               -5.8762848      LIMEGREEN           
     97     (1,85)               -4.7245607      LIMEGREEN           
     98     (1,117)              -3.9132599      LIMEGREEN           
     99     (1,151)              -3.0210062      LIMEGREEN           
    100     (1,187)              -1.8259717      LIMEGREEN           
    101     (1,265)              -30.463646      AQUA                
    102     (1,348)              -30.268875      AQUA                
    103     (1,429)              -30.119911      AQUA                
    104     (1,505)              -30.071682      AQUA                
    105     (1,585)              -30.114720      AQUA                
    106     (1,666)              -30.226545      AQUA                
    107     (1,748)              -30.387887      AQUA                
    108     (1,831)              -30.590159      AQUA                
    109     (1,914)              -30.815905      AQUA                
    110     (1,997)              -31.055128      AQUA                
    111     (1,1077)             -31.317760      AQUA                
    112     (1,1157)             -31.597855      AQUA                
    113     (1,1240)             -31.855927      AQUA                
    114     (1,1399)             -36.080569      DARKTURQUOISE       
    115     (1,1486)             -37.625959      DARKTURQUOISE       
    116     (1,1581)             -39.459885      DARKTURQUOISE       
    117     (1,1693)             -41.452591      DARKTURQUOISE       
    118     (1,1777)             -43.589122      DARKTURQUOISE       
    119     (1,1854)             -45.901062      DARKTURQUOISE       
    120     (1,1930)             -48.382584      DARKTURQUOISE       
    121     (1,2005)             -51.010424      DARKTURQUOISE       
    122     (1,2076)             -53.852235      DARKTURQUOISE       
    123     (1,2146)             -56.903943      DARKTURQUOISE       
    124     (1,2215)             -60.119234      DARKTURQUOISE       
    125     (1,2310)             -63.947975      DARKTURQUOISE       
    126     (1,2404)             -67.921417      DARKTURQUOISE       
    127     (1,2488)             -72.018170      DARKTURQUOISE       
    128     (1,2566)             -76.246078      DARKTURQUOISE       
    129     (1,2636)             -80.702361      DARKTURQUOISE       
    130     (1,2705)             -85.358580      DARKTURQUOISE       
    131     (1,2785)             -90.023905      DARKTURQUOISE       
    132     (1,2856)             -94.942990      DARKTURQUOISE       
    133     (1,2921)             -100.29472      DARKTURQUOISE       
    134     (1,2971)             -106.11725      DARKTURQUOISE       
    135     (1,3018)             -112.55504      DARKTURQUOISE       
    136     (1,3061)             -103.93611      DARKTURQUOISE       
    137     (1,3097)             -45.872637      DARKTURQUOISE       
    138     (1,3126)              9.1520488      ROYALBLUE           
    139     (1,3127)              36.871373      ROYALBLUE           
    140     (1,3128)              63.220324      ROYALBLUE           
    141     (1,3129)              94.771854      ROYALBLUE           
    142     (1,3130)              108.86790      ROYALBLUE           
    143     (1,3131)              140.39593      ROYALBLUE           
    144     (1,3132)              150.16263      ROYALBLUE           
    145     (1,3133)              160.61892      ROYALBLUE           
    146     (1,3134)              168.27287      ROYALBLUE           
    147     (1,3135)              176.34366      ROYALBLUE           
    148     (1,3112)              152.66802      BLUE                
    149     (1,3125)              188.71422      BLUE                
    150     (1,3078)              101.90279      BLUEVIOLET          
    151     (1,3079)              90.201499      BLUEVIOLET          
    152     (1,3080)              72.206960      BLUEVIOLET          
    153     (1,3081)              59.612468      BLUEVIOLET          
    154     (1,3082)              54.372342      BLUEVIOLET          
    155     (1,3083)              73.770048      BLUEVIOLET          
    156     (1,3084)              57.910181      BLUEVIOLET          
    157     (1,3085)              49.209855      BLUEVIOLET          
    158     (1,3086)              45.750120      BLUEVIOLET          
    159     (1,3087)              39.939148      BLUEVIOLET          
    160     (1,3088)              43.140054      BLUEVIOLET          
    161     (1,3089)              42.350656      BLUEVIOLET          
    162     (1,3090)              33.064450      BLUEVIOLET          
    163     (1,3091)              32.866680      BLUEVIOLET          
    164     (1,3092)              23.894111      BLUEVIOLET          
    165     (1,3093)              28.696261      BLUEVIOLET          
    166     (1,3094)              40.555865      BLUEVIOLET          
    167     (1,3095)              51.514849      BLUEVIOLET          
    168     (1,3096)              50.024714      BLUEVIOLET          
    169     (1,3055)              58.548887      PURPLE              
    170     (1,3056)              89.709096      PURPLE              
    171     (1,3057)              108.59273      PURPLE              
    172     (1,3058)              125.03732      PURPLE              
    173     (1,3059)              129.01532      PURPLE              
    174     (1,3060)              139.15118      PURPLE              
    175     (1,3015)              108.10816      MEDIUMVIOLETRED     
    176     (1,3016)              115.44025      MEDIUMVIOLETRED     
    177     (1,3017)              119.03088      MEDIUMVIOLETRED     
    178     (1,2855)             -42.383902      CRIMSON             
    179     (1,2920)              23.398503      CRIMSON             
    180     (1,2970)              72.688108      CRIMSON             
 --------------------------------------------------------------------



 UBDSV06 SAVING              RCH IN MODEL EXPERIMENTAL     PACKAGE EXPERIMENTAL    CONNECTED TO MODEL EXPERIMENTAL     PACKAGE RCH              ON UNIT   1019 AT TIME STEP      1, STRESS PERIOD      1

 RCH PACKAGE (RCH) FLOW RATES   PERIOD      1   STEP        1
 -----------------------------------------------
   NUMBER   CELLID                    RATE      
 -----------------------------------------------
     1      (1,7)                 1.36966235E-02
     2      (1,8)                 1.36963559E-02
     3      (1,24)                5.47859589E-02
     4      (1,25)                5.47859589E-02
     5      (1,26)                5.47863602E-02
     6      (1,27)                5.47852900E-02
     7      (1,28)                5.47961258E-02
     8      (1,29)                1.36966235E-02
     9      (1,30)                1.36964897E-02
     10     (1,31)                1.36968910E-02
     11     (1,32)                1.36967573E-02
     12     (1,33)                1.36958208E-02
     13     (1,34)                1.36966235E-02
     14     (1,35)                1.36963559E-02
     15     (1,36)                1.36983626E-02
     16     (1,37)                5.47688356E-02
     17     (1,38)                5.48141855E-02
     18     (1,39)                5.48250214E-02
     19     (1,40)                5.47860926E-02
     20     (1,41)                5.47859589E-02
     21     (1,42)                5.47860926E-02
     22     (1,43)                5.47860926E-02
     23     (1,44)                5.47859589E-02
     24     (1,45)                5.47855575E-02
     25     (1,46)                5.47854238E-02
     26     (1,47)                5.48246200E-02
     27     (1,48)                5.48242187E-02
     28     (1,49)                5.47863602E-02
     29     (1,50)                5.47889019E-02
     30     (1,53)                5.48248876E-02
     31     (1,54)                5.47858251E-02
     32     (1,55)                5.47860926E-02
     33     (1,56)                5.47854238E-02
     34     (1,57)                5.47856913E-02
     35     (1,58)                5.48073630E-02
     36     (1,59)                1.36979612E-02
     37     (1,60)                1.36963559E-02
     38     (1,61)                1.36968910E-02
     39     (1,62)                1.36968910E-02
     40     (1,63)                1.36966235E-02
     41     (1,64)                1.36966235E-02
     42     (1,65)                1.36960884E-02
     43     (1,66)                1.36959546E-02
     44     (1,67)                1.36962222E-02
     45     (1,68)                1.36956871E-02
     46     (1,69)                1.36963559E-02
     47     (1,70)                1.36968910E-02
     48     (1,71)                5.48050888E-02
     49     (1,72)                5.48243525E-02
     50     (1,73)                5.47859589E-02
     51     (1,74)                5.47852900E-02
     52     (1,75)                5.47859589E-02
     53     (1,76)                5.47859589E-02
     54     (1,77)                5.47862264E-02
     55     (1,78)                5.47860926E-02
     56     (1,79)                5.47855575E-02
     57     (1,80)                5.48246200E-02
     58     (1,81)                5.48282320E-02
     59     (1,82)                5.47887681E-02
     60     (1,83)                5.47864940E-02
     61     (1,86)                5.47856913E-02
     62     (1,87)                5.48240849E-02
     63     (1,88)                5.48244863E-02
     64     (1,89)                5.47855575E-02
     65     (1,90)                5.47856913E-02
     66     (1,91)                5.47898384E-02
     67     (1,92)                5.47899721E-02
     68     (1,93)                5.47954569E-02
     69     (1,94)                5.48044199E-02
     70     (1,95)                1.36968910E-02
     71     (1,96)                1.36968910E-02
     72     (1,97)                1.36963559E-02
     73     (1,98)                1.36962222E-02
     74     (1,99)                1.36962222E-02
     75     (1,100)               1.36964897E-02
     76     (1,101)               1.36967573E-02
     77     (1,102)               1.36959546E-02
     78     (1,103)               5.48056239E-02
     79     (1,104)               5.48246200E-02
     80     (1,105)               5.47855575E-02
     81     (1,106)               5.47859589E-02
     82     (1,107)               5.47860926E-02
     83     (1,108)               5.47862264E-02
     84     (1,109)               5.47863602E-02
     85     (1,110)               5.47859589E-02
     86     (1,111)               5.47897046E-02
     87     (1,112)               5.48282320E-02
     88     (1,113)               5.48240849E-02
     89     (1,114)               5.47854238E-02
     90     (1,115)               5.47856913E-02
     91     (1,118)               5.47855575E-02
     92     (1,119)               5.47855575E-02
     93     (1,120)               5.47858251E-02
     94     (1,121)               5.48239512E-02
     95     (1,122)               5.48242187E-02
     96     (1,123)               5.47899721E-02
     97     (1,124)               5.47891695E-02
     98     (1,125)               5.47856913E-02
     99     (1,126)               5.47858251E-02
    100     (1,127)               5.47858251E-02
    101     (1,128)               5.48053563E-02
    102     (1,129)               1.36968910E-02
    103     (1,130)               1.36960884E-02
    104     (1,131)               1.36970248E-02
    105     (1,132)               1.36963559E-02
    106     (1,133)               1.36967573E-02
    107     (1,134)               1.36986301E-02
    108     (1,135)               1.36984963E-02
    109     (1,136)               1.36966235E-02
    110     (1,137)               5.48049550E-02
    111     (1,138)               5.48250214E-02
    112     (1,139)               5.47856913E-02
    113     (1,140)               5.47860926E-02
    114     (1,141)               5.47859589E-02
    115     (1,142)               5.47859589E-02
    116     (1,143)               5.47894370E-02
    117     (1,144)               5.47903735E-02
    118     (1,145)               5.47855575E-02
    119     (1,146)               5.48243525E-02
    120     (1,147)               5.48242187E-02
    121     (1,148)               5.47863602E-02
    122     (1,149)               5.47859589E-02
    123     (1,152)               5.47862264E-02
    124     (1,153)               5.47860926E-02
    125     (1,154)               5.47851562E-02
    126     (1,155)               5.47863602E-02
    127     (1,156)               5.47851562E-02
    128     (1,157)               5.48286333E-02
    129     (1,158)               5.48283657E-02
    130     (1,159)               5.47858251E-02
    131     (1,160)               5.47855575E-02
    132     (1,161)               5.47862264E-02
    133     (1,162)               5.47859589E-02
    134     (1,163)               5.47860926E-02
    135     (1,164)               5.48070954E-02
    136     (1,165)               1.36972924E-02
    137     (1,166)               1.36971586E-02
    138     (1,167)               1.36964897E-02
    139     (1,168)               1.36970248E-02
    140     (1,169)               1.36967573E-02
    141     (1,170)               1.36962222E-02
    142     (1,171)               1.36962222E-02
    143     (1,172)               1.36963559E-02
    144     (1,173)               5.48058914E-02
    145     (1,174)               5.48238174E-02
    146     (1,175)               5.47860926E-02
    147     (1,176)               5.47858251E-02
    148     (1,177)               5.47894370E-02
    149     (1,178)               5.47901059E-02
    150     (1,179)               5.47863602E-02
    151     (1,180)               5.47858251E-02
    152     (1,181)               5.47855575E-02
    153     (1,182)               5.48250214E-02
    154     (1,183)               5.48246200E-02
    155     (1,184)               5.47855575E-02
    156     (1,185)               5.47855575E-02
    157     (1,188)               5.47860926E-02
    158     (1,189)               5.47860926E-02
    159     (1,190)               5.47863602E-02
    160     (1,191)               5.47859589E-02
    161     (1,192)               5.47852900E-02
    162     (1,193)               5.47897046E-02
    163     (1,194)               5.47897046E-02
    164     (1,195)               5.48244863E-02
    165     (1,196)               5.48244863E-02
    166     (1,197)               5.47855575E-02
    167     (1,198)               5.47851562E-02
    168     (1,199)               5.47858251E-02
    169     (1,200)               5.47863602E-02
    170     (1,201)               5.47860926E-02
    171     (1,202)               5.48048212E-02
    172     (1,203)               1.36963559E-02
    173     (1,204)               1.36960884E-02
    174     (1,205)               1.36964897E-02
    175     (1,206)               1.36960884E-02
    176     (1,207)               1.36960884E-02
    177     (1,208)               1.36967573E-02
    178     (1,209)               1.36967573E-02
    179     (1,210)               1.36967573E-02
    180     (1,211)               5.48045537E-02
    181     (1,212)               5.48244863E-02
    182     (1,213)               5.47894370E-02
    183     (1,214)               5.47891695E-02
    184     (1,215)               5.47863602E-02
    185     (1,216)               5.47858251E-02
    186     (1,217)               5.47859589E-02
    187     (1,218)               5.47860926E-02
    188     (1,219)               5.47862264E-02
    189     (1,220)               5.48246200E-02
    190     (1,221)               5.48239512E-02
    191     (1,222)               5.47862264E-02
    192     (1,223)               5.47859589E-02
    193     (1,225)               5.47854238E-02
    194     (1,226)               5.48242187E-02
    195     (1,227)               5.48246200E-02
    196     (1,228)               5.47856913E-02
    197     (1,229)               5.47860926E-02
    198     (1,230)               5.47862264E-02
    199     (1,231)               5.47894370E-02
    200     (1,232)               5.47897046E-02
    201     (1,233)               5.47860926E-02
    202     (1,234)               5.47858251E-02
    203     (1,235)               5.48244863E-02
    204     (1,236)               5.48243525E-02
    205     (1,237)               5.47862264E-02
    206     (1,238)               5.47855575E-02
    207     (1,239)               5.47856913E-02
    208     (1,240)               5.47859589E-02
    209     (1,241)               5.47856913E-02
    210     (1,242)               5.48058914E-02
    211     (1,243)               1.36970248E-02
    212     (1,244)               1.36963559E-02
    213     (1,245)               1.36963559E-02
    214     (1,246)               1.36968910E-02
    215     (1,247)               1.36964897E-02
    216     (1,248)               1.36964897E-02
    217     (1,249)               1.36963559E-02
    218     (1,250)               1.36968910E-02
    219     (1,251)               5.48081656E-02
    220     (1,252)               5.48272955E-02
    221     (1,253)               5.47939854E-02
    222     (1,254)               5.47858251E-02
    223     (1,255)               5.47856913E-02
    224     (1,256)               5.47859589E-02
    225     (1,257)               5.47859589E-02
    226     (1,258)               5.47862264E-02
    227     (1,259)               5.47858251E-02
    228     (1,260)               5.48243525E-02
    229     (1,261)               5.48244863E-02
    230     (1,262)               5.47855575E-02
    231     (1,263)               5.47852900E-02
    232     (1,266)               5.47856913E-02
    233     (1,267)               5.47859589E-02
    234     (1,268)               5.48246200E-02
    235     (1,269)               5.48246200E-02
    236     (1,270)               5.47863602E-02
    237     (1,271)               5.47902397E-02
    238     (1,272)               5.47895708E-02
    239     (1,273)               5.47854238E-02
    240     (1,274)               5.47854238E-02
    241     (1,275)               5.47855575E-02
    242     (1,276)               5.47854238E-02
    243     (1,277)               5.48246200E-02
    244     (1,278)               5.48243525E-02
    245     (1,279)               5.47855575E-02
    246     (1,280)               5.47854238E-02
    247     (1,281)               5.47858251E-02
    248     (1,282)               5.47858251E-02
    249     (1,283)               5.47852900E-02
    250     (1,284)               5.48049550E-02
    251     (1,285)               1.36960884E-02
    252     (1,286)               1.36963559E-02
    253     (1,287)               1.36968910E-02
    254     (1,288)               1.36978275E-02
    255     (1,289)               1.36990315E-02
    256     (1,290)               1.36966235E-02
    257     (1,291)               1.36960884E-02
    258     (1,292)               1.36963559E-02
    259     (1,293)               1.36964897E-02
    260     (1,294)               1.37160210E-02
    261     (1,295)               1.36966235E-02
    262     (1,296)               1.36964897E-02
    263     (1,297)               1.36962222E-02
    264     (1,298)               1.36963559E-02
    265     (1,299)               1.37157534E-02
    266     (1,300)               1.36960884E-02
    267     (1,301)               5.48048212E-02
    268     (1,302)               5.47946543E-02
    269     (1,303)               5.47858251E-02
    270     (1,304)               5.47854238E-02
    271     (1,305)               5.47855575E-02
    272     (1,306)               5.47862264E-02
    273     (1,307)               5.47859589E-02
    274     (1,308)               5.48239512E-02
    275     (1,309)               5.48248876E-02
    276     (1,310)               5.47856913E-02
    277     (1,311)               5.47859589E-02
    278     (1,349)               5.47858251E-02
    279     (1,350)               5.47858251E-02
    280     (1,351)               5.47862264E-02
    281     (1,352)               5.48243525E-02
    282     (1,353)               5.48283657E-02
    283     (1,354)               5.47898384E-02
    284     (1,355)               5.47858251E-02
    285     (1,356)               5.47860926E-02
    286     (1,357)               5.47858251E-02
    287     (1,358)               5.47858251E-02
    288     (1,359)               5.47859589E-02
    289     (1,360)               5.47852900E-02
    290     (1,361)               5.48250214E-02
    291     (1,362)               5.48239512E-02
    292     (1,363)               5.47862264E-02
    293     (1,364)               5.47858251E-02
    294     (1,365)               5.47862264E-02
    295     (1,366)               5.47855575E-02
    296     (1,367)               5.47891695E-02
    297     (1,368)               5.47989351E-02
    298     (1,369)               5.47959920E-02
    299     (1,370)               5.48056239E-02
    300     (1,371)               1.36970248E-02
    301     (1,372)               1.37158872E-02
    302     (1,373)               1.36959546E-02
    303     (1,374)               1.36960884E-02
    304     (1,375)               1.36960884E-02
    305     (1,376)               1.36952857E-02
    306     (1,377)               1.37161547E-02
    307     (1,378)               1.36967573E-02
    308     (1,379)               1.36960884E-02
    309     (1,380)               1.36967573E-02
    310     (1,381)               1.36954195E-02
    311     (1,382)               1.36966235E-02
    312     (1,383)               5.47966609E-02
    313     (1,384)               5.47859589E-02
    314     (1,385)               5.47858251E-02
    315     (1,386)               5.47851562E-02
    316     (1,387)               5.47860926E-02
    317     (1,388)               5.47858251E-02
    318     (1,389)               5.48242187E-02
    319     (1,390)               5.48242187E-02
    320     (1,391)               5.47903735E-02
    321     (1,392)               5.47886344E-02
    322     (1,393)               5.47858251E-02
    323     (1,394)               5.47856913E-02
    324     (1,395)               5.47858251E-02
    325     (1,396)               5.47856913E-02
    326     (1,397)               5.47856913E-02
    327     (1,398)               5.48242187E-02
    328     (1,399)               5.48242187E-02
    329     (1,400)               5.47854238E-02
    330     (1,401)               5.47858251E-02
    331     (1,402)               5.47855575E-02
    332     (1,403)               5.47858251E-02
    333     (1,404)               5.47859589E-02
    334     (1,405)               5.47859589E-02
    335     (1,406)               5.47894370E-02
    336     (1,407)               5.47899721E-02
    337     (1,408)               5.48240849E-02
    338     (1,409)               5.48242187E-02
    339     (1,410)               5.47856913E-02
    340     (1,411)               5.47860926E-02
    341     (1,412)               5.47852900E-02
    342     (1,413)               5.47858251E-02
    343     (1,414)               5.47856913E-02
    344     (1,415)               5.47854238E-02
    345     (1,416)               5.47859589E-02
    346     (1,417)               5.48246200E-02
    347     (1,418)               5.48248876E-02
    348     (1,419)               5.47859589E-02
    349     (1,420)               5.47894370E-02
    350     (1,421)               5.47890357E-02
    351     (1,422)               5.47854238E-02
    352     (1,423)               5.47855575E-02
    353     (1,424)               5.47854238E-02
    354     (1,425)               5.47856913E-02
    355     (1,426)               5.47855575E-02
    356     (1,427)               5.48244863E-02
    357     (1,430)               5.47858251E-02
    358     (1,431)               5.47858251E-02
    359     (1,432)               5.47854238E-02
    360     (1,433)               5.47895708E-02
    361     (1,434)               5.48280982E-02
    362     (1,435)               5.48242187E-02
    363     (1,436)               5.47856913E-02
    364     (1,437)               5.47855575E-02
    365     (1,438)               5.47854238E-02
    366     (1,439)               5.47852900E-02
    367     (1,440)               5.47859589E-02
    368     (1,441)               5.47866277E-02
    369     (1,442)               5.47855575E-02
    370     (1,443)               5.48246200E-02
    371     (1,444)               5.48244863E-02
    372     (1,445)               5.47855575E-02
    373     (1,446)               5.47860926E-02
    374     (1,447)               5.47895708E-02
    375     (1,448)               5.47895708E-02
    376     (1,449)               5.47856913E-02
    377     (1,450)               5.47859589E-02
    378     (1,451)               5.47855575E-02
    379     (1,452)               5.47969285E-02
    380     (1,453)               5.48246200E-02
    381     (1,454)               1.36967573E-02
    382     (1,455)               1.36962222E-02
    383     (1,456)               1.37157534E-02
    384     (1,457)               1.36968910E-02
    385     (1,458)               5.48073630E-02
    386     (1,459)               5.47858251E-02
    387     (1,460)               5.47859589E-02
    388     (1,461)               5.47858251E-02
    389     (1,462)               5.47852900E-02
    390     (1,463)               5.47848887E-02
    391     (1,464)               5.47859589E-02
    392     (1,465)               5.48279644E-02
    393     (1,466)               5.48289009E-02
    394     (1,467)               5.47862264E-02
    395     (1,468)               5.47852900E-02
    396     (1,469)               5.47852900E-02
    397     (1,470)               5.47858251E-02
    398     (1,471)               5.47854238E-02
    399     (1,472)               5.47852900E-02
    400     (1,473)               5.47856913E-02
    401     (1,474)               5.48242187E-02
    402     (1,475)               5.48244863E-02
    403     (1,476)               5.47854238E-02
    404     (1,477)               5.47859589E-02
    405     (1,478)               5.47855575E-02
    406     (1,479)               5.47856913E-02
    407     (1,480)               5.47895708E-02
    408     (1,481)               5.47894370E-02
    409     (1,482)               5.47860926E-02
    410     (1,483)               5.47859589E-02
    411     (1,484)               5.48246200E-02
    412     (1,485)               5.48247538E-02
    413     (1,486)               5.47860926E-02
    414     (1,487)               5.47862264E-02
    415     (1,488)               5.47854238E-02
    416     (1,489)               5.47856913E-02
    417     (1,490)               5.47858251E-02
    418     (1,491)               5.47863602E-02
    419     (1,492)               5.47858251E-02
    420     (1,493)               5.48243525E-02
    421     (1,494)               5.48274293E-02
    422     (1,495)               5.47897046E-02
    423     (1,496)               5.47859589E-02
    424     (1,497)               5.47856913E-02
    425     (1,498)               5.47858251E-02
    426     (1,499)               5.47862264E-02
    427     (1,500)               5.47855575E-02
    428     (1,501)               5.47856913E-02
    429     (1,502)               5.47858251E-02
    430     (1,503)               5.48239512E-02
    431     (1,506)               5.47856913E-02
    432     (1,507)               5.47858251E-02
    433     (1,508)               5.47897046E-02
    434     (1,509)               5.47897046E-02
    435     (1,510)               5.47855575E-02
    436     (1,511)               5.48246200E-02
    437     (1,512)               5.48246200E-02
    438     (1,513)               5.47860926E-02
    439     (1,514)               5.47858251E-02
    440     (1,515)               5.47855575E-02
    441     (1,516)               5.47862264E-02
    442     (1,517)               5.47866277E-02
    443     (1,518)               5.47856913E-02
    444     (1,519)               5.47858251E-02
    445     (1,520)               5.48244863E-02
    446     (1,521)               5.48244863E-02
    447     (1,522)               5.47897046E-02
    448     (1,523)               5.47894370E-02
    449     (1,524)               5.47866277E-02
    450     (1,525)               5.47859589E-02
    451     (1,526)               5.47859589E-02
    452     (1,527)               5.47856913E-02
    453     (1,528)               5.47856913E-02
    454     (1,529)               5.47943867E-02
    455     (1,530)               1.36963559E-02
    456     (1,531)               1.37178938E-02
    457     (1,532)               1.36983626E-02
    458     (1,533)               1.36962222E-02
    459     (1,534)               1.36962222E-02
    460     (1,535)               1.36966235E-02
    461     (1,536)               1.37154859E-02
    462     (1,537)               1.36964897E-02
    463     (1,538)               5.48052226E-02
    464     (1,539)               5.47859589E-02
    465     (1,540)               5.47858251E-02
    466     (1,541)               5.47858251E-02
    467     (1,542)               5.47856913E-02
    468     (1,543)               5.47898384E-02
    469     (1,544)               5.47894370E-02
    470     (1,545)               5.48240849E-02
    471     (1,546)               5.48252889E-02
    472     (1,547)               5.47856913E-02
    473     (1,548)               5.47859589E-02
    474     (1,549)               5.47854238E-02
    475     (1,550)               5.47862264E-02
    476     (1,551)               5.47860926E-02
    477     (1,552)               5.47859589E-02
    478     (1,553)               5.47860926E-02
    479     (1,554)               5.48243525E-02
    480     (1,555)               5.48248876E-02
    481     (1,556)               5.47858251E-02
    482     (1,557)               5.47851562E-02
    483     (1,558)               5.47895708E-02
    484     (1,559)               5.47901059E-02
    485     (1,560)               5.47858251E-02
    486     (1,561)               5.47856913E-02
    487     (1,562)               5.47856913E-02
    488     (1,563)               5.47858251E-02
    489     (1,564)               5.48244863E-02
    490     (1,565)               5.48240849E-02
    491     (1,566)               5.47854238E-02
    492     (1,567)               5.47858251E-02
    493     (1,568)               5.47858251E-02
    494     (1,569)               5.47858251E-02
    495     (1,570)               5.47854238E-02
    496     (1,571)               5.47855575E-02
    497     (1,572)               5.47891695E-02
    498     (1,573)               5.48286333E-02
    499     (1,574)               5.48238174E-02
    500     (1,575)               5.47858251E-02
    501     (1,576)               5.47856913E-02
    502     (1,577)               5.47863602E-02
    503     (1,578)               5.47860926E-02
    504     (1,579)               5.47858251E-02
    505     (1,580)               5.47856913E-02
    506     (1,581)               5.47856913E-02
    507     (1,582)               5.47854238E-02
    508     (1,583)               5.48246200E-02
    509     (1,586)               5.47859589E-02
    510     (1,587)               5.47894370E-02
    511     (1,588)               5.47895708E-02
    512     (1,589)               5.47860926E-02
    513     (1,590)               5.47858251E-02
    514     (1,591)               5.47859589E-02
    515     (1,592)               5.48242187E-02
    516     (1,593)               5.48248876E-02
    517     (1,594)               5.47854238E-02
    518     (1,595)               5.47860926E-02
    519     (1,596)               5.47852900E-02
    520     (1,597)               5.47856913E-02
    521     (1,598)               5.47856913E-02
    522     (1,599)               5.47855575E-02
    523     (1,600)               5.47859589E-02
    524     (1,601)               5.48282320E-02
    525     (1,602)               5.48280982E-02
    526     (1,603)               5.47852900E-02
    527     (1,604)               5.47863602E-02
    528     (1,605)               5.47862264E-02
    529     (1,606)               5.47864940E-02
    530     (1,607)               5.47859589E-02
    531     (1,608)               5.47856913E-02
    532     (1,609)               5.47863602E-02
    533     (1,610)               5.48060252E-02
    534     (1,611)               1.36960884E-02
    535     (1,612)               1.37157534E-02
    536     (1,613)               1.36964897E-02
    537     (1,614)               1.36962222E-02
    538     (1,615)               1.36966235E-02
    539     (1,616)               1.36963559E-02
    540     (1,617)               1.37160210E-02
    541     (1,618)               1.36967573E-02
    542     (1,619)               5.48062928E-02
    543     (1,620)               5.47855575E-02
    544     (1,621)               5.47860926E-02
    545     (1,622)               5.47891695E-02
    546     (1,623)               5.47894370E-02
    547     (1,624)               5.47854238E-02
    548     (1,625)               5.47855575E-02
    549     (1,626)               5.48240849E-02
    550     (1,627)               5.48244863E-02
    551     (1,628)               5.47864940E-02
    552     (1,629)               5.47855575E-02
    553     (1,630)               5.47859589E-02
    554     (1,631)               5.47854238E-02
    555     (1,632)               5.47854238E-02
    556     (1,633)               5.47858251E-02
    557     (1,634)               5.47856913E-02
    558     (1,635)               5.48243525E-02
    559     (1,636)               5.48242187E-02
    560     (1,637)               5.47889019E-02
    561     (1,638)               5.47891695E-02
    562     (1,639)               5.47855575E-02
    563     (1,640)               5.47855575E-02
    564     (1,641)               5.47860926E-02
    565     (1,642)               5.47862264E-02
    566     (1,643)               5.47856913E-02
    567     (1,644)               5.47856913E-02
    568     (1,645)               5.48240849E-02
    569     (1,646)               5.48242187E-02
    570     (1,647)               5.47859589E-02
    571     (1,648)               5.47856913E-02
    572     (1,649)               5.47858251E-02
    573     (1,650)               5.47862264E-02
    574     (1,651)               5.47895708E-02
    575     (1,652)               5.47898384E-02
    576     (1,653)               5.47855575E-02
    577     (1,654)               5.48248876E-02
    578     (1,655)               5.48244863E-02
    579     (1,656)               5.47854238E-02
    580     (1,657)               5.47854238E-02
    581     (1,658)               5.47855575E-02
    582     (1,659)               5.47856913E-02
    583     (1,660)               5.47859589E-02
    584     (1,661)               5.47855575E-02
    585     (1,662)               5.47858251E-02
    586     (1,663)               5.47858251E-02
    587     (1,664)               5.48240849E-02
    588     (1,667)               5.47902397E-02
    589     (1,668)               5.47895708E-02
    590     (1,669)               5.47859589E-02
    591     (1,670)               5.47858251E-02
    592     (1,671)               5.47855575E-02
    593     (1,672)               5.47862264E-02
    594     (1,673)               5.47858251E-02
    595     (1,674)               5.48250214E-02
    596     (1,675)               5.48242187E-02
    597     (1,676)               5.47860926E-02
    598     (1,677)               5.47856913E-02
    599     (1,678)               5.47860926E-02
    600     (1,679)               5.47852900E-02
    601     (1,680)               5.47858251E-02
    602     (1,681)               5.47905072E-02
    603     (1,682)               5.47897046E-02
    604     (1,683)               5.48239512E-02
    605     (1,684)               5.48242187E-02
    606     (1,685)               5.47859589E-02
    607     (1,686)               5.47859589E-02
    608     (1,687)               5.47855575E-02
    609     (1,688)               5.47862264E-02
    610     (1,689)               5.47860926E-02
    611     (1,690)               5.47855575E-02
    612     (1,691)               5.47854238E-02
    613     (1,692)               5.48042861E-02
    614     (1,693)               1.36962222E-02
    615     (1,694)               1.37160210E-02
    616     (1,695)               1.36967573E-02
    617     (1,696)               1.36963559E-02
    618     (1,697)               1.36968910E-02
    619     (1,698)               1.36960884E-02
    620     (1,699)               1.37161547E-02
    621     (1,700)               1.36968910E-02
    622     (1,701)               5.48061590E-02
    623     (1,702)               5.47897046E-02
    624     (1,703)               5.47897046E-02
    625     (1,704)               5.47858251E-02
    626     (1,705)               5.47852900E-02
    627     (1,706)               5.47854238E-02
    628     (1,707)               5.47859589E-02
    629     (1,708)               5.48242187E-02
    630     (1,709)               5.48251551E-02
    631     (1,710)               5.47856913E-02
    632     (1,711)               5.47859589E-02
    633     (1,712)               5.47856913E-02
    634     (1,713)               5.47855575E-02
    635     (1,714)               5.47858251E-02
    636     (1,715)               5.47852900E-02
    637     (1,716)               5.47863602E-02
    638     (1,717)               5.48279644E-02
    639     (1,718)               5.48279644E-02
    640     (1,719)               5.47858251E-02
    641     (1,720)               5.47856913E-02
    642     (1,721)               5.47858251E-02
    643     (1,722)               5.47856913E-02
    644     (1,723)               5.47855575E-02
    645     (1,724)               5.47852900E-02
    646     (1,725)               5.47852900E-02
    647     (1,726)               5.47863602E-02
    648     (1,727)               5.48250214E-02
    649     (1,728)               5.48246200E-02
    650     (1,729)               5.47855575E-02
    651     (1,730)               5.47860926E-02
    652     (1,731)               5.47897046E-02
    653     (1,732)               5.47887681E-02
    654     (1,733)               5.47856913E-02
    655     (1,734)               5.47858251E-02
    656     (1,735)               5.47850224E-02
    657     (1,736)               5.48243525E-02
    658     (1,737)               5.48246200E-02
    659     (1,738)               5.47858251E-02
    660     (1,739)               5.47855575E-02
    661     (1,740)               5.47858251E-02
    662     (1,741)               5.47851562E-02
    663     (1,742)               5.47855575E-02
    664     (1,743)               5.47859589E-02
    665     (1,744)               5.47856913E-02
    666     (1,745)               5.47854238E-02
    667     (1,746)               5.48280982E-02
    668     (1,749)               5.48286333E-02
    669     (1,750)               5.47852900E-02
    670     (1,751)               5.47856913E-02
    671     (1,752)               5.47854238E-02
    672     (1,753)               5.47859589E-02
    673     (1,754)               5.47859589E-02
    674     (1,755)               5.47855575E-02
    675     (1,756)               5.47859589E-02
    676     (1,757)               5.48244863E-02
    677     (1,758)               5.48243525E-02
    678     (1,759)               5.47860926E-02
    679     (1,760)               5.47859589E-02
    680     (1,761)               5.47856913E-02
    681     (1,762)               5.47894370E-02
    682     (1,763)               5.47897046E-02
    683     (1,764)               5.47854238E-02
    684     (1,765)               5.47855575E-02
    685     (1,766)               5.48242187E-02
    686     (1,767)               5.48243525E-02
    687     (1,768)               5.47856913E-02
    688     (1,769)               5.47856913E-02
    689     (1,770)               5.47854238E-02
    690     (1,771)               5.47856913E-02
    691     (1,772)               5.47854238E-02
    692     (1,773)               5.47860926E-02
    693     (1,774)               5.47854238E-02
    694     (1,775)               5.48049550E-02
    695     (1,776)               1.36964897E-02
    696     (1,777)               1.37161547E-02
    697     (1,778)               1.36964897E-02
    698     (1,779)               1.36970248E-02
    699     (1,780)               1.36963559E-02
    700     (1,781)               1.36962222E-02
    701     (1,782)               1.37153521E-02
    702     (1,783)               1.36982288E-02
    703     (1,784)               5.48088345E-02
    704     (1,785)               5.47859589E-02
    705     (1,786)               5.47859589E-02
    706     (1,787)               5.47858251E-02
    707     (1,788)               5.47856913E-02
    708     (1,789)               5.47859589E-02
    709     (1,790)               5.47860926E-02
    710     (1,791)               5.48244863E-02
    711     (1,792)               5.48242187E-02
    712     (1,793)               5.47858251E-02
    713     (1,794)               5.47856913E-02
    714     (1,795)               5.47855575E-02
    715     (1,796)               5.47862264E-02
    716     (1,797)               5.47854238E-02
    717     (1,798)               5.47897046E-02
    718     (1,799)               5.47893032E-02
    719     (1,800)               5.48246200E-02
    720     (1,801)               5.48242187E-02
    721     (1,802)               5.47859589E-02
    722     (1,803)               5.47858251E-02
    723     (1,804)               5.47855575E-02
    724     (1,805)               5.47855575E-02
    725     (1,806)               5.47856913E-02
    726     (1,807)               5.47862264E-02
    727     (1,808)               5.47859589E-02
    728     (1,809)               5.47859589E-02
    729     (1,810)               5.48246200E-02
    730     (1,811)               5.48242187E-02
    731     (1,812)               5.47894370E-02
    732     (1,813)               5.47899721E-02
    733     (1,814)               5.47866277E-02
    734     (1,815)               5.47860926E-02
    735     (1,816)               5.47859589E-02
    736     (1,817)               5.47859589E-02
    737     (1,818)               5.47858251E-02
    738     (1,819)               5.48244863E-02
    739     (1,820)               5.48246200E-02
    740     (1,821)               5.47863602E-02
    741     (1,822)               5.47859589E-02
    742     (1,823)               5.47859589E-02
    743     (1,824)               5.47855575E-02
    744     (1,825)               5.47852900E-02
    745     (1,826)               5.47858251E-02
    746     (1,827)               5.47893032E-02
    747     (1,828)               5.47895708E-02
    748     (1,829)               5.48246200E-02
    749     (1,832)               5.48243525E-02
    750     (1,833)               5.48239512E-02
    751     (1,834)               5.47855575E-02
    752     (1,835)               5.47854238E-02
    753     (1,836)               5.47858251E-02
    754     (1,837)               5.47855575E-02
    755     (1,838)               5.47862264E-02
    756     (1,839)               5.47855575E-02
    757     (1,840)               5.47859589E-02
    758     (1,841)               5.48246200E-02
    759     (1,842)               5.48244863E-02
    760     (1,843)               5.47860926E-02
    761     (1,844)               5.47899721E-02
    762     (1,845)               5.47898384E-02
    763     (1,846)               5.47859589E-02
    764     (1,847)               5.47859589E-02
    765     (1,848)               5.47855575E-02
    766     (1,849)               5.47859589E-02
    767     (1,850)               5.48240849E-02
    768     (1,851)               5.48248876E-02
    769     (1,852)               5.47860926E-02
    770     (1,853)               5.47859589E-02
    771     (1,854)               5.47855575E-02
    772     (1,855)               5.47856913E-02
    773     (1,856)               5.47852900E-02
    774     (1,857)               5.47851562E-02
    775     (1,858)               5.47859589E-02
    776     (1,859)               5.48081656E-02
    777     (1,860)               1.36982288E-02
    778     (1,861)               1.37164223E-02
    779     (1,862)               1.36968910E-02
    780     (1,863)               1.36962222E-02
    781     (1,864)               1.36966235E-02
    782     (1,865)               1.36964897E-02
    783     (1,866)               1.37154859E-02
    784     (1,867)               1.36955533E-02
    785     (1,868)               5.48040186E-02
    786     (1,869)               5.47860926E-02
    787     (1,870)               5.47860926E-02
    788     (1,871)               5.47858251E-02
    789     (1,872)               5.47860926E-02
    790     (1,873)               5.47848887E-02
    791     (1,874)               5.47859589E-02
    792     (1,875)               5.48250214E-02
    793     (1,876)               5.48246200E-02
    794     (1,877)               5.47851562E-02
    795     (1,878)               5.47862264E-02
    796     (1,879)               5.47856913E-02
    797     (1,880)               5.47893032E-02
    798     (1,881)               5.47893032E-02
    799     (1,882)               5.47860926E-02
    800     (1,883)               5.47859589E-02
    801     (1,884)               5.48244863E-02
    802     (1,885)               5.48246200E-02
    803     (1,886)               5.47860926E-02
    804     (1,887)               5.47856913E-02
    805     (1,888)               5.47860926E-02
    806     (1,889)               5.47854238E-02
    807     (1,890)               5.47862264E-02
    808     (1,891)               5.47858251E-02
    809     (1,892)               5.47859589E-02
    810     (1,893)               5.47851562E-02
    811     (1,894)               5.48279644E-02
    812     (1,895)               5.48282320E-02
    813     (1,896)               5.47860926E-02
    814     (1,897)               5.47859589E-02
    815     (1,898)               5.47856913E-02
    816     (1,899)               5.47855575E-02
    817     (1,900)               5.47860926E-02
    818     (1,901)               5.47863602E-02
    819     (1,902)               5.47852900E-02
    820     (1,903)               5.48250214E-02
    821     (1,904)               5.48243525E-02
    822     (1,905)               5.47855575E-02
    823     (1,906)               5.47863602E-02
    824     (1,907)               5.47859589E-02
    825     (1,908)               5.47856913E-02
    826     (1,909)               5.47894370E-02
    827     (1,910)               5.47897046E-02
    828     (1,911)               5.47858251E-02
    829     (1,912)               5.47852900E-02
    830     (1,915)               5.47860926E-02
    831     (1,916)               5.48236836E-02
    832     (1,917)               5.48247538E-02
    833     (1,918)               5.47855575E-02
    834     (1,919)               5.47856913E-02
    835     (1,920)               5.47859589E-02
    836     (1,921)               5.47864940E-02
    837     (1,922)               5.47856913E-02
    838     (1,923)               5.47858251E-02
    839     (1,924)               5.47856913E-02
    840     (1,925)               5.48247538E-02
    841     (1,926)               5.48284995E-02
    842     (1,927)               5.47893032E-02
    843     (1,928)               5.47855575E-02
    844     (1,929)               5.47860926E-02
    845     (1,930)               5.47859589E-02
    846     (1,931)               5.47852900E-02
    847     (1,932)               5.47854238E-02
    848     (1,933)               5.47855575E-02
    849     (1,934)               5.48242187E-02
    850     (1,935)               5.48242187E-02
    851     (1,936)               5.47856913E-02
    852     (1,937)               5.47855575E-02
    853     (1,938)               5.47862264E-02
    854     (1,939)               5.47854238E-02
    855     (1,940)               5.47854238E-02
    856     (1,941)               5.47893032E-02
    857     (1,942)               5.47893032E-02
    858     (1,943)               5.48049550E-02
    859     (1,944)               1.36968910E-02
    860     (1,945)               1.37160210E-02
    861     (1,946)               1.36966235E-02
    862     (1,947)               1.36964897E-02
    863     (1,948)               1.36960884E-02
    864     (1,949)               1.36966235E-02
    865     (1,950)               1.37160210E-02
    866     (1,951)               1.36960884E-02
    867     (1,952)               5.47967947E-02
    868     (1,953)               5.47851562E-02
    869     (1,954)               5.47852900E-02
    870     (1,955)               5.47862264E-02
    871     (1,956)               5.47859589E-02
    872     (1,957)               5.47855575E-02
    873     (1,958)               5.47856913E-02
    874     (1,959)               5.48243525E-02
    875     (1,960)               5.48246200E-02
    876     (1,961)               5.47858251E-02
    877     (1,962)               5.47895708E-02
    878     (1,963)               5.47898384E-02
    879     (1,964)               5.47854238E-02
    880     (1,965)               5.47856913E-02
    881     (1,966)               5.47860926E-02
    882     (1,967)               5.47855575E-02
    883     (1,968)               5.48247538E-02
    884     (1,969)               5.48236836E-02
    885     (1,970)               5.47854238E-02
    886     (1,971)               5.47860926E-02
    887     (1,972)               5.47854238E-02
    888     (1,973)               5.47858251E-02
    889     (1,974)               5.47851562E-02
    890     (1,975)               5.47862264E-02
    891     (1,976)               5.47897046E-02
    892     (1,977)               5.47898384E-02
    893     (1,978)               5.48250214E-02
    894     (1,979)               5.48240849E-02
    895     (1,980)               5.47859589E-02
    896     (1,981)               5.47855575E-02
    897     (1,982)               5.47854238E-02
    898     (1,983)               5.47860926E-02
    899     (1,984)               5.47862264E-02
    900     (1,985)               5.47862264E-02
    901     (1,986)               5.47863602E-02
    902     (1,987)               5.48244863E-02
    903     (1,988)               5.48238174E-02
    904     (1,989)               5.47858251E-02
    905     (1,990)               5.47856913E-02
    906     (1,991)               5.47895708E-02
    907     (1,992)               5.47897046E-02
    908     (1,993)               5.47854238E-02
    909     (1,994)               5.47859589E-02
    910     (1,995)               5.47859589E-02
    911     (1,998)               5.47854238E-02
    912     (1,999)               5.47856913E-02
    913     (1,1000)              5.48240849E-02
    914     (1,1001)              5.48246200E-02
    915     (1,1002)              5.47856913E-02
    916     (1,1003)              5.47855575E-02
    917     (1,1004)              5.47852900E-02
    918     (1,1005)              5.47854238E-02
    919     (1,1006)              5.47858251E-02
    920     (1,1007)              5.47855575E-02
    921     (1,1008)              5.47901059E-02
    922     (1,1009)              5.48290346E-02
    923     (1,1010)              5.48243525E-02
    924     (1,1011)              5.47860926E-02
    925     (1,1012)              5.47863602E-02
    926     (1,1013)              5.47858251E-02
    927     (1,1014)              5.47860926E-02
    928     (1,1015)              5.47854238E-02
    929     (1,1016)              5.47858251E-02
    930     (1,1017)              5.47859589E-02
    931     (1,1018)              5.48243525E-02
    932     (1,1019)              5.48240849E-02
    933     (1,1020)              5.47858251E-02
    934     (1,1021)              5.47852900E-02
    935     (1,1022)              5.47855575E-02
    936     (1,1023)              5.47897046E-02
    937     (1,1024)              5.47899721E-02
    938     (1,1025)              5.47855575E-02
    939     (1,1026)              5.47855575E-02
    940     (1,1027)              5.48048212E-02
    941     (1,1028)              1.36962222E-02
    942     (1,1029)              1.37161547E-02
    943     (1,1030)              1.36972924E-02
    944     (1,1031)              1.36962222E-02
    945     (1,1032)              5.48252889E-02
    946     (1,1033)              5.47858251E-02
    947     (1,1034)              5.47860926E-02
    948     (1,1035)              5.47854238E-02
    949     (1,1036)              5.47856913E-02
    950     (1,1037)              5.47862264E-02
    951     (1,1038)              5.47859589E-02
    952     (1,1039)              5.47859589E-02
    953     (1,1040)              5.48252889E-02
    954     (1,1041)              5.48279644E-02
    955     (1,1042)              5.47894370E-02
    956     (1,1043)              5.47856913E-02
    957     (1,1044)              5.47855575E-02
    958     (1,1045)              5.47855575E-02
    959     (1,1046)              5.47852900E-02
    960     (1,1047)              5.47854238E-02
    961     (1,1048)              5.47859589E-02
    962     (1,1049)              5.48247538E-02
    963     (1,1050)              5.48239512E-02
    964     (1,1051)              5.47854238E-02
    965     (1,1052)              5.47854238E-02
    966     (1,1053)              5.47859589E-02
    967     (1,1054)              5.47856913E-02
    968     (1,1055)              5.47898384E-02
    969     (1,1056)              5.47897046E-02
    970     (1,1057)              5.47859589E-02
    971     (1,1058)              5.47854238E-02
    972     (1,1059)              5.48240849E-02
    973     (1,1060)              5.48242187E-02
    974     (1,1061)              5.47859589E-02
    975     (1,1062)              5.47856913E-02
    976     (1,1063)              5.47863602E-02
    977     (1,1064)              5.47854238E-02
    978     (1,1065)              5.47852900E-02
    979     (1,1066)              5.47858251E-02
    980     (1,1067)              5.47860926E-02
    981     (1,1068)              5.48239512E-02
    982     (1,1069)              5.48248876E-02
    983     (1,1070)              5.47889019E-02
    984     (1,1071)              5.47893032E-02
    985     (1,1072)              5.47862264E-02
    986     (1,1073)              5.47858251E-02
    987     (1,1074)              5.47852900E-02
    988     (1,1075)              5.47855575E-02
    989     (1,1078)              5.47858251E-02
    990     (1,1079)              5.47855575E-02
    991     (1,1080)              5.47860926E-02
    992     (1,1081)              5.48246200E-02
    993     (1,1082)              5.48246200E-02
    994     (1,1083)              5.47858251E-02
    995     (1,1084)              5.47859589E-02
    996     (1,1085)              5.47854238E-02
    997     (1,1086)              5.47856913E-02
    998     (1,1087)              5.47894370E-02
    999     (1,1088)              5.47895708E-02
    1000    (1,1089)              5.47860926E-02
    1001    (1,1090)              5.48239512E-02
    1002    (1,1091)              5.48244863E-02
    1003    (1,1092)              5.47863602E-02
    1004    (1,1093)              5.47854238E-02
    1005    (1,1094)              5.47862264E-02
    1006    (1,1095)              5.47855575E-02
    1007    (1,1096)              5.47860926E-02
    1008    (1,1097)              5.47854238E-02
    1009    (1,1098)              5.47862264E-02
    1010    (1,1099)              5.48242187E-02
    1011    (1,1100)              5.48246200E-02
    1012    (1,1101)              5.47860926E-02
    1013    (1,1102)              5.47897046E-02
    1014    (1,1103)              5.47898384E-02
    1015    (1,1104)              5.47858251E-02
    1016    (1,1105)              5.47858251E-02
    1017    (1,1106)              5.47856913E-02
    1018    (1,1107)              5.47947881E-02
    1019    (1,1108)              1.36967573E-02
    1020    (1,1109)              1.36964897E-02
    1021    (1,1110)              1.36967573E-02
    1022    (1,1111)              1.36966235E-02
    1023    (1,1112)              5.48050888E-02
    1024    (1,1113)              5.48243525E-02
    1025    (1,1114)              5.47859589E-02
    1026    (1,1115)              5.47859589E-02
    1027    (1,1116)              5.47860926E-02
    1028    (1,1117)              5.47860926E-02
    1029    (1,1118)              5.47859589E-02
    1030    (1,1119)              5.47862264E-02
    1031    (1,1120)              5.47894370E-02
    1032    (1,1121)              5.48278306E-02
    1033    (1,1122)              5.48246200E-02
    1034    (1,1123)              5.47856913E-02
    1035    (1,1124)              5.47862264E-02
    1036    (1,1125)              5.47860926E-02
    1037    (1,1126)              5.47858251E-02
    1038    (1,1127)              5.47858251E-02
    1039    (1,1128)              5.47855575E-02
    1040    (1,1129)              5.47854238E-02
    1041    (1,1130)              5.48243525E-02
    1042    (1,1131)              5.48243525E-02
    1043    (1,1132)              5.47858251E-02
    1044    (1,1133)              5.47851562E-02
    1045    (1,1134)              5.47894370E-02
    1046    (1,1135)              5.47899721E-02
    1047    (1,1136)              5.47858251E-02
    1048    (1,1137)              5.47860926E-02
    1049    (1,1138)              5.47859589E-02
    1050    (1,1139)              5.47862264E-02
    1051    (1,1140)              5.48244863E-02
    1052    (1,1141)              5.48248876E-02
    1053    (1,1142)              5.47860926E-02
    1054    (1,1143)              5.47863602E-02
    1055    (1,1144)              5.47856913E-02
    1056    (1,1145)              5.47855575E-02
    1057    (1,1146)              5.47854238E-02
    1058    (1,1147)              5.47858251E-02
    1059    (1,1148)              5.47854238E-02
    1060    (1,1149)              5.48276969E-02
    1061    (1,1150)              5.48280982E-02
    1062    (1,1151)              5.47856913E-02
    1063    (1,1152)              5.47860926E-02
    1064    (1,1153)              5.47856913E-02
    1065    (1,1154)              5.47856913E-02
    1066    (1,1155)              5.47854238E-02
    1067    (1,1158)              5.47859589E-02
    1068    (1,1159)              5.47851562E-02
    1069    (1,1160)              5.47854238E-02
    1070    (1,1161)              5.47859589E-02
    1071    (1,1162)              5.48247538E-02
    1072    (1,1163)              5.48239512E-02
    1073    (1,1164)              5.47862264E-02
    1074    (1,1165)              5.47859589E-02
    1075    (1,1166)              5.47890357E-02
    1076    (1,1167)              5.47890357E-02
    1077    (1,1168)              5.47856913E-02
    1078    (1,1169)              5.47855575E-02
    1079    (1,1170)              5.47862264E-02
    1080    (1,1171)              5.48242187E-02
    1081    (1,1172)              5.48246200E-02
    1082    (1,1173)              5.47852900E-02
    1083    (1,1174)              5.47860926E-02
    1084    (1,1175)              5.47862264E-02
    1085    (1,1176)              5.47854238E-02
    1086    (1,1177)              5.47858251E-02
    1087    (1,1178)              5.47858251E-02
    1088    (1,1179)              5.47863602E-02
    1089    (1,1180)              5.48247538E-02
    1090    (1,1181)              5.48286333E-02
    1091    (1,1182)              5.47893032E-02
    1092    (1,1183)              5.47855575E-02
    1093    (1,1184)              5.47856913E-02
    1094    (1,1185)              5.47863602E-02
    1095    (1,1186)              5.47859589E-02
    1096    (1,1187)              5.47943867E-02
    1097    (1,1188)              1.36958208E-02
    1098    (1,1189)              1.36967573E-02
    1099    (1,1190)              1.36963559E-02
    1100    (1,1191)              1.36968910E-02
    1101    (1,1192)              1.36963559E-02
    1102    (1,1193)              1.36984963E-02
    1103    (1,1194)              1.36986301E-02
    1104    (1,1195)              1.36964897E-02
    1105    (1,1196)              5.48137842E-02
    1106    (1,1197)              5.48244863E-02
    1107    (1,1198)              5.47860926E-02
    1108    (1,1199)              5.47858251E-02
    1109    (1,1200)              5.47858251E-02
    1110    (1,1201)              5.47859589E-02
    1111    (1,1202)              5.47894370E-02
    1112    (1,1203)              5.47897046E-02
    1113    (1,1204)              5.47855575E-02
    1114    (1,1205)              5.48252889E-02
    1115    (1,1206)              5.48246200E-02
    1116    (1,1207)              5.47858251E-02
    1117    (1,1208)              5.47866277E-02
    1118    (1,1209)              5.47855575E-02
    1119    (1,1210)              5.47854238E-02
    1120    (1,1211)              5.47859589E-02
    1121    (1,1212)              5.47856913E-02
    1122    (1,1213)              5.47862264E-02
    1123    (1,1214)              5.48243525E-02
    1124    (1,1215)              5.48247538E-02
    1125    (1,1216)              5.47889019E-02
    1126    (1,1217)              5.47893032E-02
    1127    (1,1218)              5.47856913E-02
    1128    (1,1219)              5.47855575E-02
    1129    (1,1220)              5.47860926E-02
    1130    (1,1221)              5.47856913E-02
    1131    (1,1222)              5.47860926E-02
    1132    (1,1223)              5.47860926E-02
    1133    (1,1224)              5.48246200E-02
    1134    (1,1225)              5.48247538E-02
    1135    (1,1226)              5.47859589E-02
    1136    (1,1227)              5.47862264E-02
    1137    (1,1228)              5.47863602E-02
    1138    (1,1229)              5.47860926E-02
    1139    (1,1230)              5.47855575E-02
    1140    (1,1231)              5.47897046E-02
    1141    (1,1232)              5.47903735E-02
    1142    (1,1233)              5.48247538E-02
    1143    (1,1234)              5.48244863E-02
    1144    (1,1235)              5.47851562E-02
    1145    (1,1236)              5.47854238E-02
    1146    (1,1237)              5.47860926E-02
    1147    (1,1238)              5.47858251E-02
    1148    (1,1241)              5.47855575E-02
    1149    (1,1242)              5.47855575E-02
    1150    (1,1243)              5.47850224E-02
    1151    (1,1244)              5.47859589E-02
    1152    (1,1245)              5.47856913E-02
    1153    (1,1246)              5.48248876E-02
    1154    (1,1247)              5.48248876E-02
    1155    (1,1248)              5.47902397E-02
    1156    (1,1249)              5.47901059E-02
    1157    (1,1250)              5.47860926E-02
    1158    (1,1251)              5.47860926E-02
    1159    (1,1252)              5.47858251E-02
    1160    (1,1253)              5.47856913E-02
    1161    (1,1254)              5.47855575E-02
    1162    (1,1255)              5.48248876E-02
    1163    (1,1256)              5.48244863E-02
    1164    (1,1257)              5.47860926E-02
    1165    (1,1258)              5.47859589E-02
    1166    (1,1259)              5.47863602E-02
    1167    (1,1260)              5.47858251E-02
    1168    (1,1261)              5.47862264E-02
    1169    (1,1262)              5.47856913E-02
    1170    (1,1263)              5.47906410E-02
    1171    (1,1264)              5.48275631E-02
    1172    (1,1265)              5.48240849E-02
    1173    (1,1266)              5.47863602E-02
    1174    (1,1267)              5.47856913E-02
    1175    (1,1268)              5.47860926E-02
    1176    (1,1269)              5.47860926E-02
    1177    (1,1270)              5.47860926E-02
    1178    (1,1271)              5.48069616E-02
    1179    (1,1272)              1.36956871E-02
    1180    (1,1273)              1.36970248E-02
    1181    (1,1274)              1.36962222E-02
    1182    (1,1275)              1.36962222E-02
    1183    (1,1276)              5.47749893E-02
    1184    (1,1277)              5.48248876E-02
    1185    (1,1278)              5.48248876E-02
    1186    (1,1279)              5.47859589E-02
    1187    (1,1280)              5.47854238E-02
    1188    (1,1281)              5.47902397E-02
    1189    (1,1282)              5.47899721E-02
    1190    (1,1283)              5.47863602E-02
    1191    (1,1284)              5.47854238E-02
    1192    (1,1285)              5.47862264E-02
    1193    (1,1286)              5.48242187E-02
    1194    (1,1287)              5.48246200E-02
    1195    (1,1288)              5.47864940E-02
    1196    (1,1289)              5.47860926E-02
    1197    (1,1290)              5.47856913E-02
    1198    (1,1291)              5.47855575E-02
    1199    (1,1292)              5.47855575E-02
    1200    (1,1293)              5.47855575E-02
    1201    (1,1294)              5.47858251E-02
    1202    (1,1295)              5.48279644E-02
    1203    (1,1296)              5.48282320E-02
    1204    (1,1297)              5.47856913E-02
    1205    (1,1298)              5.47862264E-02
    1206    (1,1299)              5.47862264E-02
    1207    (1,1300)              5.47859589E-02
    1208    (1,1301)              5.47858251E-02
    1209    (1,1302)              5.47860926E-02
    1210    (1,1303)              5.47858251E-02
    1211    (1,1304)              5.47862264E-02
    1212    (1,1305)              5.48247538E-02
    1213    (1,1306)              5.48244863E-02
    1214    (1,1307)              5.47860926E-02
    1215    (1,1308)              5.47858251E-02
    1216    (1,1309)              5.47856913E-02
    1217    (1,1310)              5.47897046E-02
    1218    (1,1311)              5.47895708E-02
    1219    (1,1312)              5.47854238E-02
    1220    (1,1313)              5.47858251E-02
    1221    (1,1314)              5.48247538E-02
    1222    (1,1315)              5.48239512E-02
    1223    (1,1316)              5.47856913E-02
    1224    (1,1317)              5.47852900E-02
    1225    (1,1318)              5.47863602E-02
    1226    (1,1320)              5.47866277E-02
    1227    (1,1321)              5.47859589E-02
    1228    (1,1322)              5.47863602E-02
    1229    (1,1323)              5.47860926E-02
    1230    (1,1324)              5.47855575E-02
    1231    (1,1325)              5.47863602E-02
    1232    (1,1326)              5.48287671E-02
    1233    (1,1327)              5.48282320E-02
    1234    (1,1328)              5.47858251E-02
    1235    (1,1329)              5.47855575E-02
    1236    (1,1330)              5.47856913E-02
    1237    (1,1331)              5.47856913E-02
    1238    (1,1332)              5.47858251E-02
    1239    (1,1333)              5.47858251E-02
    1240    (1,1334)              5.47859589E-02
    1241    (1,1335)              5.48243525E-02
    1242    (1,1336)              5.48250214E-02
    1243    (1,1337)              5.47858251E-02
    1244    (1,1338)              5.47852900E-02
    1245    (1,1339)              5.47860926E-02
    1246    (1,1340)              5.47859589E-02
    1247    (1,1341)              5.47893032E-02
    1248    (1,1342)              5.47898384E-02
    1249    (1,1343)              5.47858251E-02
    1250    (1,1344)              5.48246200E-02
    1251    (1,1345)              5.48239512E-02
    1252    (1,1346)              5.47856913E-02
    1253    (1,1347)              5.47851562E-02
    1254    (1,1348)              5.47854238E-02
    1255    (1,1349)              5.47855575E-02
    1256    (1,1350)              5.48062928E-02
    1257    (1,1351)              1.36968910E-02
    1258    (1,1352)              1.36964897E-02
    1259    (1,1353)              1.36962222E-02
    1260    (1,1354)              1.36966235E-02
    1261    (1,1355)              5.47761932E-02
    1262    (1,1356)              5.47858251E-02
    1263    (1,1357)              5.48244863E-02
    1264    (1,1358)              5.48239512E-02
    1265    (1,1359)              5.47894370E-02
    1266    (1,1360)              5.47901059E-02
    1267    (1,1361)              5.47859589E-02
    1268    (1,1362)              5.47862264E-02
    1269    (1,1363)              5.47859589E-02
    1270    (1,1364)              5.47860926E-02
    1271    (1,1365)              5.47755244E-02
    1272    (1,1366)              5.48136504E-02
    1273    (1,1367)              5.48242187E-02
    1274    (1,1368)              5.47858251E-02
    1275    (1,1369)              5.47858251E-02
    1276    (1,1370)              5.47858251E-02
    1277    (1,1371)              5.47854238E-02
    1278    (1,1372)              5.47856913E-02
    1279    (1,1373)              5.47897046E-02
    1280    (1,1374)              5.47894370E-02
    1281    (1,1375)              5.48246200E-02
    1282    (1,1376)              5.48246200E-02
    1283    (1,1377)              5.47858251E-02
    1284    (1,1378)              5.47858251E-02
    1285    (1,1379)              5.47859589E-02
    1286    (1,1380)              5.47855575E-02
    1287    (1,1381)              5.47856913E-02
    1288    (1,1382)              5.47854238E-02
    1289    (1,1383)              5.47856913E-02
    1290    (1,1384)              5.47852900E-02
    1291    (1,1385)              5.48240849E-02
    1292    (1,1386)              5.48243525E-02
    1293    (1,1387)              5.47858251E-02
    1294    (1,1388)              5.47894370E-02
    1295    (1,1389)              5.47895708E-02
    1296    (1,1390)              5.47860926E-02
    1297    (1,1391)              5.47858251E-02
    1298    (1,1392)              5.47864940E-02
    1299    (1,1393)              5.47856913E-02
    1300    (1,1394)              5.48244863E-02
    1301    (1,1395)              5.48243525E-02
    1302    (1,1396)              5.47859589E-02
    1303    (1,1397)              5.47856913E-02
    1304    (1,1400)              5.47858251E-02
    1305    (1,1401)              5.47863602E-02
    1306    (1,1402)              5.47862264E-02
    1307    (1,1403)              5.47897046E-02
    1308    (1,1404)              5.47899721E-02
    1309    (1,1405)              5.48242187E-02
    1310    (1,1406)              5.48243525E-02
    1311    (1,1407)              5.47855575E-02
    1312    (1,1408)              5.47854238E-02
    1313    (1,1409)              5.47858251E-02
    1314    (1,1410)              5.47858251E-02
    1315    (1,1411)              5.47855575E-02
    1316    (1,1412)              5.47858251E-02
    1317    (1,1413)              5.47859589E-02
    1318    (1,1414)              5.48244863E-02
    1319    (1,1415)              5.48247538E-02
    1320    (1,1416)              5.47859589E-02
    1321    (1,1417)              5.47862264E-02
    1322    (1,1418)              5.47899721E-02
    1323    (1,1419)              5.47887681E-02
    1324    (1,1420)              5.47860926E-02
    1325    (1,1421)              5.47858251E-02
    1326    (1,1422)              5.47855575E-02
    1327    (1,1423)              5.48246200E-02
    1328    (1,1424)              5.48246200E-02
    1329    (1,1425)              5.47860926E-02
    1330    (1,1426)              5.47860926E-02
    1331    (1,1427)              5.47773972E-02
    1332    (1,1428)              1.36964897E-02
    1333    (1,1429)              1.36966235E-02
    1334    (1,1430)              1.36960884E-02
    1335    (1,1431)              1.36963559E-02
    1336    (1,1432)              1.37160210E-02
    1337    (1,1433)              1.36967573E-02
    1338    (1,1434)              1.36967573E-02
    1339    (1,1435)              1.37153521E-02
    1340    (1,1436)              5.47661601E-02
    1341    (1,1437)              5.47855575E-02
    1342    (1,1438)              5.47854238E-02
    1343    (1,1439)              5.48283657E-02
    1344    (1,1440)              5.48278306E-02
    1345    (1,1441)              5.47858251E-02
    1346    (1,1442)              5.47860926E-02
    1347    (1,1443)              5.47859589E-02
    1348    (1,1444)              5.47862264E-02
    1349    (1,1445)              5.47840860E-02
    1350    (1,1446)              1.36967573E-02
    1351    (1,1447)              1.36967573E-02
    1352    (1,1448)              1.36967573E-02
    1353    (1,1449)              1.36967573E-02
    1354    (1,1450)              1.36959546E-02
    1355    (1,1451)              1.36986301E-02
    1356    (1,1452)              1.36983626E-02
    1357    (1,1453)              1.36967573E-02
    1358    (1,1454)              5.48044199E-02
    1359    (1,1455)              5.48250214E-02
    1360    (1,1456)              5.47858251E-02
    1361    (1,1457)              5.47855575E-02
    1362    (1,1458)              5.47858251E-02
    1363    (1,1459)              5.47858251E-02
    1364    (1,1460)              5.47898384E-02
    1365    (1,1461)              5.47860926E-02
    1366    (1,1462)              5.47859589E-02
    1367    (1,1463)              5.48250214E-02
    1368    (1,1464)              5.48244863E-02
    1369    (1,1465)              5.47859589E-02
    1370    (1,1466)              5.47859589E-02
    1371    (1,1467)              5.47855575E-02
    1372    (1,1468)              5.47856913E-02
    1373    (1,1469)              5.47858251E-02
    1374    (1,1470)              5.47859589E-02
    1375    (1,1471)              5.47860926E-02
    1376    (1,1472)              5.47862264E-02
    1377    (1,1473)              5.48250214E-02
    1378    (1,1474)              5.48287671E-02
    1379    (1,1475)              5.47895708E-02
    1380    (1,1476)              5.47856913E-02
    1381    (1,1477)              5.47858251E-02
    1382    (1,1478)              5.47862264E-02
    1383    (1,1479)              5.47858251E-02
    1384    (1,1480)              5.47855575E-02
    1385    (1,1481)              5.47858251E-02
    1386    (1,1482)              5.48247538E-02
    1387    (1,1483)              5.48244863E-02
    1388    (1,1484)              5.47851562E-02
    1389    (1,1487)              5.47858251E-02
    1390    (1,1488)              5.47902397E-02
    1391    (1,1489)              5.47898384E-02
    1392    (1,1490)              5.47859589E-02
    1393    (1,1491)              5.47860926E-02
    1394    (1,1492)              5.48240849E-02
    1395    (1,1493)              5.48242187E-02
    1396    (1,1494)              5.47854238E-02
    1397    (1,1495)              5.47855575E-02
    1398    (1,1496)              5.47859589E-02
    1399    (1,1497)              5.47855575E-02
    1400    (1,1498)              5.47856913E-02
    1401    (1,1499)              5.47858251E-02
    1402    (1,1500)              5.47859589E-02
    1403    (1,1501)              5.48247538E-02
    1404    (1,1502)              5.48247538E-02
    1405    (1,1503)              5.47901059E-02
    1406    (1,1504)              5.47897046E-02
    1407    (1,1505)              5.47851562E-02
    1408    (1,1506)              5.47854238E-02
    1409    (1,1507)              5.47856913E-02
    1410    (1,1508)              5.47854238E-02
    1411    (1,1509)              5.47856913E-02
    1412    (1,1510)              5.48244863E-02
    1413    (1,1511)              5.48244863E-02
    1414    (1,1512)              5.47859589E-02
    1415    (1,1513)              5.47773972E-02
    1416    (1,1514)              1.36962222E-02
    1417    (1,1515)              1.36967573E-02
    1418    (1,1516)              1.36960884E-02
    1419    (1,1517)              1.36960884E-02
    1420    (1,1518)              1.36966235E-02
    1421    (1,1519)              1.36972924E-02
    1422    (1,1520)              1.36967573E-02
    1423    (1,1521)              1.36964897E-02
    1424    (1,1522)              1.37161547E-02
    1425    (1,1523)              1.36964897E-02
    1426    (1,1524)              1.36966235E-02
    1427    (1,1525)              1.37164223E-02
    1428    (1,1526)              5.47666952E-02
    1429    (1,1527)              5.47798052E-02
    1430    (1,1528)              5.47777985E-02
    1431    (1,1529)              5.48140517E-02
    1432    (1,1530)              5.48234160E-02
    1433    (1,1531)              5.47947881E-02
    1434    (1,1532)              5.47945205E-02
    1435    (1,1533)              5.47834171E-02
    1436    (1,1534)              1.37154859E-02
    1437    (1,1535)              1.36967573E-02
    1438    (1,1536)              1.36968910E-02
    1439    (1,1537)              1.37160210E-02
    1440    (1,1538)              1.36966235E-02
    1441    (1,1539)              1.36983626E-02
    1442    (1,1540)              1.36986301E-02
    1443    (1,1541)              1.36967573E-02
    1444    (1,1542)              1.36962222E-02
    1445    (1,1543)              1.36959546E-02
    1446    (1,1544)              1.36964897E-02
    1447    (1,1545)              1.36962222E-02
    1448    (1,1546)              1.36966235E-02
    1449    (1,1547)              1.36959546E-02
    1450    (1,1548)              1.36964897E-02
    1451    (1,1549)              1.36958208E-02
    1452    (1,1550)              5.48140517E-02
    1453    (1,1551)              5.48240849E-02
    1454    (1,1552)              5.47858251E-02
    1455    (1,1553)              5.47862264E-02
    1456    (1,1554)              5.47893032E-02
    1457    (1,1555)              5.47894370E-02
    1458    (1,1556)              5.47860926E-02
    1459    (1,1557)              5.47859589E-02
    1460    (1,1558)              5.47860926E-02
    1461    (1,1559)              5.48250214E-02
    1462    (1,1560)              5.48243525E-02
    1463    (1,1561)              5.47856913E-02
    1464    (1,1562)              5.47863602E-02
    1465    (1,1563)              5.47860926E-02
    1466    (1,1564)              5.47856913E-02
    1467    (1,1565)              5.47859589E-02
    1468    (1,1566)              5.47859589E-02
    1469    (1,1567)              5.47855575E-02
    1470    (1,1568)              5.47898384E-02
    1471    (1,1569)              5.48283657E-02
    1472    (1,1570)              5.48246200E-02
    1473    (1,1571)              5.47860926E-02
    1474    (1,1572)              5.47855575E-02
    1475    (1,1573)              5.47862264E-02
    1476    (1,1574)              5.47855575E-02
    1477    (1,1575)              5.47859589E-02
    1478    (1,1576)              5.47855575E-02
    1479    (1,1577)              5.47859589E-02
    1480    (1,1578)              5.48238174E-02
    1481    (1,1579)              5.48242187E-02
    1482    (1,1582)              5.47898384E-02
    1483    (1,1583)              5.47858251E-02
    1484    (1,1584)              5.47858251E-02
    1485    (1,1585)              5.47852900E-02
    1486    (1,1586)              5.47856913E-02
    1487    (1,1587)              5.48244863E-02
    1488    (1,1588)              5.48248876E-02
    1489    (1,1589)              5.47855575E-02
    1490    (1,1590)              5.47855575E-02
    1491    (1,1591)              5.47852900E-02
    1492    (1,1592)              5.47855575E-02
    1493    (1,1593)              5.47860926E-02
    1494    (1,1594)              5.47858251E-02
    1495    (1,1595)              5.47863602E-02
    1496    (1,1596)              5.48282320E-02
    1497    (1,1597)              5.48280982E-02
    1498    (1,1598)              5.47860926E-02
    1499    (1,1599)              5.47860926E-02
    1500    (1,1600)              5.47862264E-02
    1501    (1,1601)              5.47859589E-02
    1502    (1,1602)              5.47863602E-02
    1503    (1,1603)              5.47855575E-02
    1504    (1,1604)              5.47858251E-02
    1505    (1,1605)              5.48244863E-02
    1506    (1,1606)              5.48244863E-02
    1507    (1,1607)              5.47858251E-02
    1508    (1,1608)              5.47753906E-02
    1509    (1,1609)              5.47664276E-02
    1510    (1,1610)              1.36966235E-02
    1511    (1,1611)              1.36958208E-02
    1512    (1,1612)              1.36963559E-02
    1513    (1,1613)              1.36963559E-02
    1514    (1,1614)              1.37158872E-02
    1515    (1,1615)              1.36963559E-02
    1516    (1,1616)              1.36962222E-02
    1517    (1,1617)              1.37180276E-02
    1518    (1,1618)              1.36976937E-02
    1519    (1,1619)              1.36966235E-02
    1520    (1,1620)              1.36958208E-02
    1521    (1,1621)              1.36962222E-02
    1522    (1,1622)              1.36966235E-02
    1523    (1,1623)              1.36966235E-02
    1524    (1,1624)              1.36963559E-02
    1525    (1,1625)              1.36962222E-02
    1526    (1,1626)              1.36966235E-02
    1527    (1,1627)              1.36960884E-02
    1528    (1,1628)              1.36963559E-02
    1529    (1,1629)              1.36968910E-02
    1530    (1,1630)              1.36962222E-02
    1531    (1,1631)              1.37152183E-02
    1532    (1,1632)              1.36962222E-02
    1533    (1,1633)              1.36966235E-02
    1534    (1,1634)              1.36960884E-02
    1535    (1,1635)              1.36966235E-02
    1536    (1,1636)              1.37153521E-02
    1537    (1,1637)              1.36962222E-02
    1538    (1,1638)              1.36956871E-02
    1539    (1,1639)              1.36964897E-02
    1540    (1,1640)              1.36966235E-02
    1541    (1,1641)              1.36967573E-02
    1542    (1,1642)              1.36962222E-02
    1543    (1,1643)              1.36967573E-02
    1544    (1,1644)              1.36964897E-02
    1545    (1,1645)              1.36963559E-02
    1546    (1,1646)              1.36962222E-02
    1547    (1,1647)              1.36982288E-02
    1548    (1,1648)              1.36980950E-02
    1549    (1,1649)              1.36962222E-02
    1550    (1,1650)              1.37154859E-02
    1551    (1,1651)              1.36956871E-02
    1552    (1,1652)              1.36968910E-02
    1553    (1,1653)              1.37154859E-02
    1554    (1,1654)              1.36959546E-02
    1555    (1,1655)              1.36964897E-02
    1556    (1,1656)              1.36967573E-02
    1557    (1,1657)              1.36966235E-02
    1558    (1,1658)              1.36962222E-02
    1559    (1,1659)              1.36964897E-02
    1560    (1,1660)              1.36959546E-02
    1561    (1,1661)              1.36966235E-02
    1562    (1,1662)              5.47657587E-02
    1563    (1,1663)              5.48244863E-02
    1564    (1,1664)              5.48242187E-02
    1565    (1,1665)              5.47893032E-02
    1566    (1,1666)              5.47898384E-02
    1567    (1,1667)              5.47855575E-02
    1568    (1,1668)              5.47856913E-02
    1569    (1,1669)              5.47856913E-02
    1570    (1,1670)              5.47852900E-02
    1571    (1,1671)              5.47856913E-02
    1572    (1,1672)              5.48240849E-02
    1573    (1,1673)              5.48244863E-02
    1574    (1,1674)              5.47854238E-02
    1575    (1,1675)              5.47855575E-02
    1576    (1,1676)              5.47855575E-02
    1577    (1,1677)              5.47854238E-02
    1578    (1,1678)              5.47860926E-02
    1579    (1,1679)              5.47891695E-02
    1580    (1,1680)              5.47901059E-02
    1581    (1,1681)              5.47856913E-02
    1582    (1,1682)              5.48240849E-02
    1583    (1,1683)              5.48242187E-02
    1584    (1,1684)              5.47854238E-02
    1585    (1,1685)              5.47863602E-02
    1586    (1,1686)              5.47855575E-02
    1587    (1,1687)              5.47855575E-02
    1588    (1,1688)              5.47856913E-02
    1589    (1,1689)              5.47860926E-02
    1590    (1,1690)              5.47858251E-02
    1591    (1,1691)              5.48244863E-02
    1592    (1,1694)              5.47855575E-02
    1593    (1,1695)              5.47863602E-02
    1594    (1,1696)              5.47860926E-02
    1595    (1,1697)              5.47859589E-02
    1596    (1,1698)              5.47860926E-02
    1597    (1,1699)              5.48246200E-02
    1598    (1,1700)              5.48242187E-02
    1599    (1,1701)              5.47856913E-02
    1600    (1,1702)              5.47864940E-02
    1601    (1,1703)              5.47860926E-02
    1602    (1,1704)              5.47856913E-02
    1603    (1,1705)              5.47856913E-02
    1604    (1,1706)              5.47898384E-02
    1605    (1,1707)              5.47893032E-02
    1606    (1,1708)              5.48244863E-02
    1607    (1,1709)              5.48244863E-02
    1608    (1,1710)              5.47860926E-02
    1609    (1,1711)              5.47856913E-02
    1610    (1,1712)              5.47858251E-02
    1611    (1,1713)              5.47860926E-02
    1612    (1,1714)              5.47856913E-02
    1613    (1,1715)              5.47854238E-02
    1614    (1,1716)              5.47856913E-02
    1615    (1,1717)              5.48244863E-02
    1616    (1,1718)              5.48240849E-02
    1617    (1,1719)              5.47855575E-02
    1618    (1,1720)              5.47856913E-02
    1619    (1,1721)              5.47784674E-02
    1620    (1,1722)              5.47802065E-02
    1621    (1,1723)              5.47959920E-02
    1622    (1,1724)              5.47971960E-02
    1623    (1,1725)              5.47962596E-02
    1624    (1,1726)              5.47962596E-02
    1625    (1,1727)              5.48251551E-02
    1626    (1,1728)              5.48160584E-02
    1627    (1,1729)              5.47775310E-02
    1628    (1,1730)              5.47653574E-02
    1629    (1,1731)              1.36964897E-02
    1630    (1,1732)              1.36964897E-02
    1631    (1,1733)              1.36970248E-02
    1632    (1,1734)              1.36962222E-02
    1633    (1,1735)              1.37153521E-02
    1634    (1,1736)              1.36964897E-02
    1635    (1,1737)              1.36964897E-02
    1636    (1,1738)              1.37157534E-02
    1637    (1,1739)              1.36956871E-02
    1638    (1,1740)              1.36960884E-02
    1639    (1,1741)              1.36964897E-02
    1640    (1,1742)              1.36966235E-02
    1641    (1,1743)              1.36968910E-02
    1642    (1,1744)              1.36968910E-02
    1643    (1,1745)              1.36962222E-02
    1644    (1,1746)              1.36967573E-02
    1645    (1,1747)              5.47745879E-02
    1646    (1,1748)              5.48284995E-02
    1647    (1,1749)              5.48284995E-02
    1648    (1,1750)              5.47858251E-02
    1649    (1,1751)              5.47858251E-02
    1650    (1,1752)              5.47864940E-02
    1651    (1,1753)              5.47860926E-02
    1652    (1,1754)              5.47858251E-02
    1653    (1,1755)              5.47855575E-02
    1654    (1,1756)              5.47859589E-02
    1655    (1,1757)              5.48244863E-02
    1656    (1,1758)              5.48248876E-02
    1657    (1,1759)              5.47858251E-02
    1658    (1,1760)              5.47856913E-02
    1659    (1,1761)              5.47862264E-02
    1660    (1,1762)              5.47895708E-02
    1661    (1,1763)              5.47897046E-02
    1662    (1,1764)              5.47860926E-02
    1663    (1,1765)              5.47858251E-02
    1664    (1,1766)              5.47860926E-02
    1665    (1,1767)              5.48247538E-02
    1666    (1,1768)              5.48247538E-02
    1667    (1,1769)              5.47858251E-02
    1668    (1,1770)              5.47859589E-02
    1669    (1,1771)              5.47862264E-02
    1670    (1,1772)              5.47864940E-02
    1671    (1,1773)              5.47860926E-02
    1672    (1,1774)              5.47860926E-02
    1673    (1,1775)              5.47852900E-02
    1674    (1,1778)              5.47858251E-02
    1675    (1,1779)              5.47862264E-02
    1676    (1,1780)              5.47854238E-02
    1677    (1,1781)              5.47852900E-02
    1678    (1,1782)              5.47859589E-02
    1679    (1,1783)              5.48247538E-02
    1680    (1,1784)              5.48242187E-02
    1681    (1,1785)              5.47855575E-02
    1682    (1,1786)              5.47855575E-02
    1683    (1,1787)              5.47851562E-02
    1684    (1,1788)              5.47894370E-02
    1685    (1,1789)              5.47898384E-02
    1686    (1,1790)              5.47856913E-02
    1687    (1,1791)              5.47856913E-02
    1688    (1,1792)              5.48238174E-02
    1689    (1,1793)              5.48248876E-02
    1690    (1,1794)              5.47858251E-02
    1691    (1,1795)              5.47855575E-02
    1692    (1,1796)              5.47860926E-02
    1693    (1,1797)              5.47859589E-02
    1694    (1,1798)              5.47863602E-02
    1695    (1,1799)              5.47860926E-02
    1696    (1,1800)              5.47858251E-02
    1697    (1,1801)              5.48236836E-02
    1698    (1,1802)              5.48244863E-02
    1699    (1,1803)              5.47886344E-02
    1700    (1,1804)              5.47895708E-02
    1701    (1,1805)              5.47855575E-02
    1702    (1,1806)              5.47862264E-02
    1703    (1,1807)              5.47859589E-02
    1704    (1,1808)              5.47852900E-02
    1705    (1,1809)              5.47854238E-02
    1706    (1,1810)              5.47854238E-02
    1707    (1,1811)              5.48242187E-02
    1708    (1,1812)              5.48242187E-02
    1709    (1,1813)              5.47856913E-02
    1710    (1,1814)              5.47748555E-02
    1711    (1,1815)              5.47777985E-02
    1712    (1,1816)              1.37153521E-02
    1713    (1,1817)              1.36966235E-02
    1714    (1,1818)              1.36966235E-02
    1715    (1,1819)              1.37158872E-02
    1716    (1,1820)              1.36960884E-02
    1717    (1,1821)              1.36963559E-02
    1718    (1,1822)              1.36960884E-02
    1719    (1,1823)              1.36962222E-02
    1720    (1,1824)              5.47790025E-02
    1721    (1,1825)              5.47895708E-02
    1722    (1,1826)              5.48251551E-02
    1723    (1,1827)              5.48242187E-02
    1724    (1,1828)              5.47852900E-02
    1725    (1,1829)              5.47859589E-02
    1726    (1,1830)              5.47860926E-02
    1727    (1,1831)              5.47848887E-02
    1728    (1,1832)              5.47852900E-02
    1729    (1,1833)              5.47856913E-02
    1730    (1,1834)              5.47855575E-02
    1731    (1,1835)              5.48243525E-02
    1732    (1,1836)              5.48243525E-02
    1733    (1,1837)              5.47856913E-02
    1734    (1,1838)              5.47898384E-02
    1735    (1,1839)              5.47890357E-02
    1736    (1,1840)              5.47858251E-02
    1737    (1,1841)              5.47859589E-02
    1738    (1,1842)              5.47860926E-02
    1739    (1,1843)              5.47856913E-02
    1740    (1,1844)              5.47859589E-02
    1741    (1,1845)              5.48246200E-02
    1742    (1,1846)              5.48240849E-02
    1743    (1,1847)              5.47854238E-02
    1744    (1,1848)              5.47858251E-02
    1745    (1,1849)              5.47852900E-02
    1746    (1,1850)              5.47855575E-02
    1747    (1,1851)              5.47855575E-02
    1748    (1,1852)              5.47856913E-02
    1749    (1,1855)              5.47852900E-02
    1750    (1,1856)              5.47852900E-02
    1751    (1,1857)              5.47856913E-02
    1752    (1,1858)              5.47859589E-02
    1753    (1,1859)              5.47855575E-02
    1754    (1,1860)              5.48243525E-02
    1755    (1,1861)              5.48243525E-02
    1756    (1,1862)              5.47856913E-02
    1757    (1,1863)              5.47891695E-02
    1758    (1,1864)              5.47897046E-02
    1759    (1,1865)              5.47858251E-02
    1760    (1,1866)              5.47858251E-02
    1761    (1,1867)              5.47859589E-02
    1762    (1,1868)              5.47858251E-02
    1763    (1,1869)              5.48243525E-02
    1764    (1,1870)              5.48239512E-02
    1765    (1,1871)              5.47859589E-02
    1766    (1,1872)              5.47862264E-02
    1767    (1,1873)              5.47854238E-02
    1768    (1,1874)              5.47852900E-02
    1769    (1,1875)              5.47859589E-02
    1770    (1,1876)              5.47856913E-02
    1771    (1,1877)              5.47859589E-02
    1772    (1,1878)              5.48275631E-02
    1773    (1,1879)              5.48276969E-02
    1774    (1,1880)              5.47858251E-02
    1775    (1,1881)              5.47860926E-02
    1776    (1,1882)              5.47858251E-02
    1777    (1,1883)              5.47854238E-02
    1778    (1,1884)              5.47856913E-02
    1779    (1,1885)              5.47855575E-02
    1780    (1,1886)              5.47859589E-02
    1781    (1,1887)              5.47854238E-02
    1782    (1,1888)              5.48248876E-02
    1783    (1,1889)              5.48246200E-02
    1784    (1,1890)              5.47767283E-02
    1785    (1,1891)              1.36958208E-02
    1786    (1,1892)              1.36959546E-02
    1787    (1,1893)              1.36960884E-02
    1788    (1,1894)              1.36963559E-02
    1789    (1,1895)              1.36963559E-02
    1790    (1,1896)              1.36964897E-02
    1791    (1,1897)              1.36966235E-02
    1792    (1,1898)              1.36964897E-02
    1793    (1,1899)              5.48066941E-02
    1794    (1,1900)              5.47893032E-02
    1795    (1,1901)              5.47854238E-02
    1796    (1,1902)              5.47854238E-02
    1797    (1,1903)              5.48244863E-02
    1798    (1,1904)              5.48247538E-02
    1799    (1,1905)              5.47858251E-02
    1800    (1,1906)              5.47862264E-02
    1801    (1,1907)              5.47862264E-02
    1802    (1,1908)              5.47863602E-02
    1803    (1,1909)              5.47859589E-02
    1804    (1,1910)              5.47860926E-02
    1805    (1,1911)              5.47851562E-02
    1806    (1,1912)              5.48239512E-02
    1807    (1,1913)              5.48282320E-02
    1808    (1,1914)              5.47895708E-02
    1809    (1,1915)              5.47858251E-02
    1810    (1,1916)              5.47858251E-02
    1811    (1,1917)              5.47858251E-02
    1812    (1,1918)              5.47860926E-02
    1813    (1,1919)              5.47858251E-02
    1814    (1,1920)              5.47858251E-02
    1815    (1,1921)              5.47860926E-02
    1816    (1,1922)              5.48242187E-02
    1817    (1,1923)              5.48242187E-02
    1818    (1,1924)              5.47859589E-02
    1819    (1,1925)              5.47856913E-02
    1820    (1,1926)              5.47856913E-02
    1821    (1,1927)              5.47862264E-02
    1822    (1,1928)              5.47897046E-02
    1823    (1,1931)              5.47856913E-02
    1824    (1,1932)              5.47856913E-02
    1825    (1,1933)              5.47855575E-02
    1826    (1,1934)              5.47851562E-02
    1827    (1,1935)              5.47860926E-02
    1828    (1,1936)              5.48250214E-02
    1829    (1,1937)              5.48286333E-02
    1830    (1,1938)              5.47898384E-02
    1831    (1,1939)              5.47858251E-02
    1832    (1,1940)              5.47856913E-02
    1833    (1,1941)              5.47856913E-02
    1834    (1,1942)              5.47854238E-02
    1835    (1,1943)              5.47854238E-02
    1836    (1,1944)              5.47862264E-02
    1837    (1,1945)              5.48246200E-02
    1838    (1,1946)              5.48244863E-02
    1839    (1,1947)              5.47850224E-02
    1840    (1,1948)              5.47856913E-02
    1841    (1,1949)              5.47860926E-02
    1842    (1,1950)              5.47854238E-02
    1843    (1,1951)              5.47863602E-02
    1844    (1,1952)              5.47897046E-02
    1845    (1,1953)              5.47901059E-02
    1846    (1,1954)              5.48246200E-02
    1847    (1,1955)              5.48250214E-02
    1848    (1,1956)              5.47858251E-02
    1849    (1,1957)              5.47856913E-02
    1850    (1,1958)              5.47852900E-02
    1851    (1,1959)              5.47859589E-02
    1852    (1,1960)              5.47856913E-02
    1853    (1,1961)              5.47863602E-02
    1854    (1,1962)              5.47860926E-02
    1855    (1,1963)              5.47856913E-02
    1856    (1,1964)              5.48244863E-02
    1857    (1,1965)              5.48153895E-02
    1858    (1,1966)              1.36968910E-02
    1859    (1,1967)              1.36964897E-02
    1860    (1,1968)              1.36966235E-02
    1861    (1,1969)              1.36964897E-02
    1862    (1,1970)              1.36963559E-02
    1863    (1,1971)              1.36964897E-02
    1864    (1,1972)              1.36964897E-02
    1865    (1,1973)              1.36983626E-02
    1866    (1,1974)              5.47990689E-02
    1867    (1,1975)              5.47860926E-02
    1868    (1,1976)              5.47852900E-02
    1869    (1,1977)              5.47863602E-02
    1870    (1,1978)              5.47856913E-02
    1871    (1,1979)              5.48243525E-02
    1872    (1,1980)              5.48247538E-02
    1873    (1,1981)              5.47863602E-02
    1874    (1,1982)              5.47854238E-02
    1875    (1,1983)              5.47862264E-02
    1876    (1,1984)              5.47856913E-02
    1877    (1,1985)              5.47850224E-02
    1878    (1,1986)              5.47854238E-02
    1879    (1,1987)              5.47893032E-02
    1880    (1,1988)              5.48286333E-02
    1881    (1,1989)              5.48246200E-02
    1882    (1,1990)              5.47858251E-02
    1883    (1,1991)              5.47858251E-02
    1884    (1,1992)              5.47856913E-02
    1885    (1,1993)              5.47858251E-02
    1886    (1,1994)              5.47860926E-02
    1887    (1,1995)              5.47858251E-02
    1888    (1,1996)              5.47854238E-02
    1889    (1,1997)              5.47855575E-02
    1890    (1,1998)              5.48240849E-02
    1891    (1,1999)              5.48248876E-02
    1892    (1,2000)              5.47856913E-02
    1893    (1,2001)              5.47860926E-02
    1894    (1,2002)              5.47890357E-02
    1895    (1,2003)              5.47887681E-02
    1896    (1,2006)              5.47851562E-02
    1897    (1,2007)              5.47858251E-02
    1898    (1,2008)              5.47856913E-02
    1899    (1,2009)              5.47856913E-02
    1900    (1,2010)              5.47894370E-02
    1901    (1,2011)              5.48286333E-02
    1902    (1,2012)              5.48244863E-02
    1903    (1,2013)              5.47855575E-02
    1904    (1,2014)              5.47854238E-02
    1905    (1,2015)              5.47860926E-02
    1906    (1,2016)              5.47862264E-02
    1907    (1,2017)              5.47858251E-02
    1908    (1,2018)              5.47860926E-02
    1909    (1,2019)              5.47854238E-02
    1910    (1,2020)              5.48247538E-02
    1911    (1,2021)              5.48243525E-02
    1912    (1,2022)              5.47856913E-02
    1913    (1,2023)              5.47859589E-02
    1914    (1,2024)              5.47856913E-02
    1915    (1,2025)              5.47903735E-02
    1916    (1,2026)              5.47894370E-02
    1917    (1,2027)              5.47858251E-02
    1918    (1,2028)              5.47862264E-02
    1919    (1,2029)              5.48246200E-02
    1920    (1,2030)              5.48250214E-02
    1921    (1,2031)              5.47856913E-02
    1922    (1,2032)              5.47855575E-02
    1923    (1,2033)              5.47855575E-02
    1924    (1,2034)              5.47862264E-02
    1925    (1,2035)              5.47854238E-02
    1926    (1,2036)              5.47854238E-02
    1927    (1,2037)              5.47856913E-02
    1928    (1,2038)              5.47858251E-02
    1929    (1,2039)              5.48243525E-02
    1930    (1,2040)              5.48092358E-02
    1931    (1,2041)              1.36986301E-02
    1932    (1,2042)              1.36960884E-02
    1933    (1,2043)              1.36968910E-02
    1934    (1,2044)              1.36966235E-02
    1935    (1,2045)              5.47959920E-02
    1936    (1,2046)              5.47862264E-02
    1937    (1,2047)              5.47859589E-02
    1938    (1,2048)              5.47858251E-02
    1939    (1,2049)              5.47856913E-02
    1940    (1,2050)              5.47863602E-02
    1941    (1,2051)              5.48244863E-02
    1942    (1,2052)              5.48242187E-02
    1943    (1,2053)              5.47858251E-02
    1944    (1,2054)              5.47858251E-02
    1945    (1,2055)              5.47863602E-02
    1946    (1,2056)              5.47862264E-02
    1947    (1,2057)              5.47899721E-02
    1948    (1,2058)              5.47901059E-02
    1949    (1,2059)              5.47858251E-02
    1950    (1,2060)              5.48251551E-02
    1951    (1,2061)              5.48244863E-02
    1952    (1,2062)              5.47859589E-02
    1953    (1,2063)              5.47856913E-02
    1954    (1,2064)              5.47859589E-02
    1955    (1,2065)              5.47855575E-02
    1956    (1,2066)              5.47858251E-02
    1957    (1,2067)              5.47854238E-02
    1958    (1,2068)              5.47855575E-02
    1959    (1,2069)              5.47856913E-02
    1960    (1,2070)              5.48244863E-02
    1961    (1,2071)              5.48243525E-02
    1962    (1,2072)              5.47893032E-02
    1963    (1,2073)              5.47891695E-02
    1964    (1,2074)              5.47860926E-02
    1965    (1,2077)              5.47862264E-02
    1966    (1,2078)              5.47854238E-02
    1967    (1,2079)              5.47895708E-02
    1968    (1,2080)              5.47890357E-02
    1969    (1,2081)              5.47860926E-02
    1970    (1,2082)              5.48246200E-02
    1971    (1,2083)              5.48246200E-02
    1972    (1,2084)              5.47854238E-02
    1973    (1,2085)              5.47855575E-02
    1974    (1,2086)              5.47859589E-02
    1975    (1,2087)              5.47855575E-02
    1976    (1,2088)              5.47859589E-02
    1977    (1,2089)              5.47856913E-02
    1978    (1,2090)              5.47860926E-02
    1979    (1,2091)              5.48243525E-02
    1980    (1,2092)              5.48240849E-02
    1981    (1,2093)              5.47852900E-02
    1982    (1,2094)              5.47901059E-02
    1983    (1,2095)              5.47898384E-02
    1984    (1,2096)              5.47854238E-02
    1985    (1,2097)              5.47862264E-02
    1986    (1,2098)              5.47856913E-02
    1987    (1,2099)              5.47859589E-02
    1988    (1,2100)              5.48247538E-02
    1989    (1,2101)              5.48251551E-02
    1990    (1,2102)              5.47851562E-02
    1991    (1,2103)              5.47854238E-02
    1992    (1,2104)              5.47858251E-02
    1993    (1,2105)              5.47856913E-02
    1994    (1,2106)              5.47852900E-02
    1995    (1,2107)              5.47860926E-02
    1996    (1,2108)              5.47854238E-02
    1997    (1,2109)              5.47895708E-02
    1998    (1,2110)              5.48271618E-02
    1999    (1,2111)              1.36963559E-02
    2000    (1,2112)              1.36970248E-02
    2001    (1,2113)              1.37160210E-02
    2002    (1,2114)              1.36963559E-02
    2003    (1,2115)              5.47965271E-02
    2004    (1,2116)              5.47862264E-02
    2005    (1,2117)              5.47863602E-02
    2006    (1,2118)              5.47858251E-02
    2007    (1,2119)              5.47860926E-02
    2008    (1,2120)              5.47859589E-02
    2009    (1,2121)              5.47851562E-02
    2010    (1,2122)              5.48244863E-02
    2011    (1,2123)              5.48238174E-02
    2012    (1,2124)              5.47862264E-02
    2013    (1,2125)              5.47856913E-02
    2014    (1,2126)              5.47898384E-02
    2015    (1,2127)              5.47899721E-02
    2016    (1,2128)              5.47855575E-02
    2017    (1,2129)              5.47863602E-02
    2018    (1,2130)              5.47859589E-02
    2019    (1,2131)              5.48250214E-02
    2020    (1,2132)              5.48244863E-02
    2021    (1,2133)              5.47855575E-02
    2022    (1,2134)              5.47859589E-02
    2023    (1,2135)              5.47856913E-02
    2024    (1,2136)              5.47858251E-02
    2025    (1,2137)              5.47856913E-02
    2026    (1,2138)              5.47859589E-02
    2027    (1,2139)              5.47856913E-02
    2028    (1,2140)              5.47850224E-02
    2029    (1,2141)              5.48276969E-02
    2030    (1,2142)              5.48282320E-02
    2031    (1,2143)              5.47858251E-02
    2032    (1,2144)              5.47851562E-02
    2033    (1,2147)              5.47897046E-02
    2034    (1,2148)              5.47897046E-02
    2035    (1,2149)              5.47855575E-02
    2036    (1,2150)              5.47860926E-02
    2037    (1,2151)              5.47854238E-02
    2038    (1,2152)              5.48239512E-02
    2039    (1,2153)              5.48247538E-02
    2040    (1,2154)              5.47855575E-02
    2041    (1,2155)              5.47855575E-02
    2042    (1,2156)              5.47854238E-02
    2043    (1,2157)              5.47856913E-02
    2044    (1,2158)              5.47856913E-02
    2045    (1,2159)              5.47855575E-02
    2046    (1,2160)              5.47860926E-02
    2047    (1,2161)              5.48242187E-02
    2048    (1,2162)              5.48284995E-02
    2049    (1,2163)              5.47897046E-02
    2050    (1,2164)              5.47858251E-02
    2051    (1,2165)              5.47862264E-02
    2052    (1,2166)              5.47859589E-02
    2053    (1,2167)              5.47858251E-02
    2054    (1,2168)              5.47863602E-02
    2055    (1,2169)              5.47860926E-02
    2056    (1,2170)              5.48247538E-02
    2057    (1,2171)              5.48242187E-02
    2058    (1,2172)              5.47852900E-02
    2059    (1,2173)              5.47858251E-02
    2060    (1,2174)              5.47856913E-02
    2061    (1,2175)              5.47854238E-02
    2062    (1,2176)              5.47852900E-02
    2063    (1,2177)              5.47893032E-02
    2064    (1,2178)              5.47898384E-02
    2065    (1,2179)              5.47943867E-02
    2066    (1,2180)              1.36964897E-02
    2067    (1,2181)              1.37160210E-02
    2068    (1,2182)              1.36962222E-02
    2069    (1,2183)              1.36964897E-02
    2070    (1,2184)              5.48250214E-02
    2071    (1,2185)              5.47856913E-02
    2072    (1,2186)              5.47858251E-02
    2073    (1,2187)              5.47854238E-02
    2074    (1,2188)              5.47860926E-02
    2075    (1,2189)              5.47862264E-02
    2076    (1,2190)              5.47858251E-02
    2077    (1,2191)              5.47860926E-02
    2078    (1,2192)              5.48240849E-02
    2079    (1,2193)              5.48252889E-02
    2080    (1,2194)              5.47895708E-02
    2081    (1,2195)              5.47890357E-02
    2082    (1,2196)              5.47858251E-02
    2083    (1,2197)              5.47859589E-02
    2084    (1,2198)              5.47859589E-02
    2085    (1,2199)              5.47856913E-02
    2086    (1,2200)              5.47856913E-02
    2087    (1,2201)              5.48246200E-02
    2088    (1,2202)              5.48254227E-02
    2089    (1,2203)              5.47965271E-02
    2090    (1,2204)              5.47967947E-02
    2091    (1,2205)              5.47962596E-02
    2092    (1,2206)              5.47967947E-02
    2093    (1,2207)              5.47965271E-02
    2094    (1,2208)              5.47771297E-02
    2095    (1,2209)              5.47803403E-02
    2096    (1,2210)              5.47784674E-02
    2097    (1,2211)              5.48240849E-02
    2098    (1,2212)              5.48240849E-02
    2099    (1,2213)              5.47859589E-02
    2100    (1,2216)              5.47862264E-02
    2101    (1,2217)              5.47858251E-02
    2102    (1,2218)              5.47855575E-02
    2103    (1,2219)              5.47862264E-02
    2104    (1,2220)              5.47859589E-02
    2105    (1,2221)              5.48240849E-02
    2106    (1,2222)              5.48246200E-02
    2107    (1,2223)              5.47856913E-02
    2108    (1,2224)              5.47859589E-02
    2109    (1,2225)              5.47860926E-02
    2110    (1,2226)              5.47855575E-02
    2111    (1,2227)              5.47859589E-02
    2112    (1,2228)              5.47859589E-02
    2113    (1,2229)              5.47895708E-02
    2114    (1,2230)              5.48280982E-02
    2115    (1,2231)              5.48247538E-02
    2116    (1,2232)              5.47859589E-02
    2117    (1,2233)              5.47862264E-02
    2118    (1,2234)              5.47859589E-02
    2119    (1,2235)              5.47855575E-02
    2120    (1,2236)              5.47864940E-02
    2121    (1,2237)              5.47860926E-02
    2122    (1,2238)              5.47856913E-02
    2123    (1,2239)              5.48248876E-02
    2124    (1,2240)              5.48246200E-02
    2125    (1,2241)              5.47860926E-02
    2126    (1,2242)              5.47859589E-02
    2127    (1,2243)              5.47863602E-02
    2128    (1,2244)              5.47902397E-02
    2129    (1,2245)              5.47895708E-02
    2130    (1,2246)              5.47859589E-02
    2131    (1,2247)              5.47943867E-02
    2132    (1,2248)              1.36960884E-02
    2133    (1,2249)              1.36963559E-02
    2134    (1,2250)              1.36970248E-02
    2135    (1,2251)              1.36963559E-02
    2136    (1,2252)              5.48155233E-02
    2137    (1,2253)              5.48240849E-02
    2138    (1,2254)              5.47858251E-02
    2139    (1,2255)              5.47856913E-02
    2140    (1,2256)              5.47860926E-02
    2141    (1,2257)              5.47860926E-02
    2142    (1,2258)              5.47863602E-02
    2143    (1,2259)              5.47864940E-02
    2144    (1,2260)              5.47859589E-02
    2145    (1,2261)              5.48280982E-02
    2146    (1,2262)              5.48282320E-02
    2147    (1,2263)              5.47859589E-02
    2148    (1,2264)              5.47858251E-02
    2149    (1,2265)              5.47859589E-02
    2150    (1,2266)              5.47949218E-02
    2151    (1,2267)              5.47753906E-02
    2152    (1,2268)              5.47753906E-02
    2153    (1,2269)              5.47882330E-02
    2154    (1,2270)              1.36966235E-02
    2155    (1,2271)              1.37161547E-02
    2156    (1,2272)              1.36966235E-02
    2157    (1,2273)              1.36966235E-02
    2158    (1,2274)              1.36964897E-02
    2159    (1,2275)              1.36966235E-02
    2160    (1,2276)              1.37160210E-02
    2161    (1,2277)              1.36968910E-02
    2162    (1,2278)              1.36958208E-02
    2163    (1,2279)              1.36959546E-02
    2164    (1,2280)              1.36959546E-02
    2165    (1,2281)              1.36970248E-02
    2166    (1,2282)              1.36964897E-02
    2167    (1,2283)              1.36962222E-02
    2168    (1,2284)              1.36960884E-02
    2169    (1,2285)              1.36962222E-02
    2170    (1,2286)              1.36963559E-02
    2171    (1,2287)              1.36968910E-02
    2172    (1,2288)              1.36966235E-02
    2173    (1,2289)              1.36963559E-02
    2174    (1,2290)              1.36968910E-02
    2175    (1,2291)              1.36970248E-02
    2176    (1,2292)              1.36959546E-02
    2177    (1,2293)              1.36968910E-02
    2178    (1,2294)              1.37153521E-02
    2179    (1,2295)              1.36966235E-02
    2180    (1,2296)              1.36968910E-02
    2181    (1,2297)              1.37180276E-02
    2182    (1,2298)              1.36980950E-02
    2183    (1,2299)              1.36966235E-02
    2184    (1,2300)              1.36966235E-02
    2185    (1,2301)              1.36962222E-02
    2186    (1,2302)              1.36956871E-02
    2187    (1,2303)              1.36968910E-02
    2188    (1,2304)              1.36963559E-02
    2189    (1,2305)              1.36968910E-02
    2190    (1,2306)              5.47649561E-02
    2191    (1,2307)              5.48242187E-02
    2192    (1,2308)              5.48242187E-02
    2193    (1,2311)              5.47856913E-02
    2194    (1,2312)              5.47854238E-02
    2195    (1,2313)              5.47856913E-02
    2196    (1,2314)              5.47852900E-02
    2197    (1,2315)              5.47855575E-02
    2198    (1,2316)              5.48242187E-02
    2199    (1,2317)              5.48239512E-02
    2200    (1,2318)              5.47855575E-02
    2201    (1,2319)              5.47855575E-02
    2202    (1,2320)              5.47851562E-02
    2203    (1,2321)              5.47856913E-02
    2204    (1,2322)              5.47902397E-02
    2205    (1,2323)              5.47898384E-02
    2206    (1,2324)              5.47862264E-02
    2207    (1,2325)              5.48246200E-02
    2208    (1,2326)              5.48247538E-02
    2209    (1,2327)              5.47863602E-02
    2210    (1,2328)              5.47859589E-02
    2211    (1,2329)              5.47860926E-02
    2212    (1,2330)              5.47859589E-02
    2213    (1,2331)              5.47852900E-02
    2214    (1,2332)              5.47859589E-02
    2215    (1,2333)              5.47854238E-02
    2216    (1,2334)              5.48242187E-02
    2217    (1,2335)              5.48244863E-02
    2218    (1,2336)              5.47859589E-02
    2219    (1,2337)              5.47894370E-02
    2220    (1,2338)              5.47891695E-02
    2221    (1,2339)              5.47858251E-02
    2222    (1,2340)              5.47858251E-02
    2223    (1,2341)              5.47831496E-02
    2224    (1,2342)              1.36967573E-02
    2225    (1,2343)              1.36959546E-02
    2226    (1,2344)              1.36967573E-02
    2227    (1,2345)              1.36962222E-02
    2228    (1,2346)              5.47771297E-02
    2229    (1,2347)              5.48244863E-02
    2230    (1,2348)              5.48243525E-02
    2231    (1,2349)              5.47856913E-02
    2232    (1,2350)              5.47858251E-02
    2233    (1,2351)              5.47862264E-02
    2234    (1,2352)              5.47856913E-02
    2235    (1,2353)              5.47862264E-02
    2236    (1,2354)              5.47898384E-02
    2237    (1,2355)              5.47895708E-02
    2238    (1,2356)              5.48243525E-02
    2239    (1,2357)              5.48242187E-02
    2240    (1,2358)              5.47945205E-02
    2241    (1,2359)              5.47840860E-02
    2242    (1,2360)              1.36963559E-02
    2243    (1,2361)              1.36966235E-02
    2244    (1,2362)              1.36964897E-02
    2245    (1,2363)              1.36962222E-02
    2246    (1,2364)              1.37158872E-02
    2247    (1,2365)              1.36964897E-02
    2248    (1,2366)              1.36967573E-02
    2249    (1,2367)              1.37157534E-02
    2250    (1,2368)              1.36963559E-02
    2251    (1,2369)              1.36983626E-02
    2252    (1,2370)              1.36983626E-02
    2253    (1,2371)              1.36964897E-02
    2254    (1,2372)              1.36962222E-02
    2255    (1,2373)              1.36964897E-02
    2256    (1,2374)              1.36962222E-02
    2257    (1,2375)              1.36964897E-02
    2258    (1,2376)              1.36963559E-02
    2259    (1,2377)              1.36967573E-02
    2260    (1,2378)              1.36962222E-02
    2261    (1,2379)              1.36964897E-02
    2262    (1,2380)              5.48133829E-02
    2263    (1,2381)              5.48141855E-02
    2264    (1,2382)              5.47756581E-02
    2265    (1,2383)              5.47748555E-02
    2266    (1,2384)              5.47687018E-02
    2267    (1,2385)              1.36978275E-02
    2268    (1,2386)              1.36967573E-02
    2269    (1,2387)              1.36966235E-02
    2270    (1,2388)              1.36956871E-02
    2271    (1,2389)              1.37160210E-02
    2272    (1,2390)              1.36960884E-02
    2273    (1,2391)              1.36966235E-02
    2274    (1,2392)              1.37158872E-02
    2275    (1,2393)              1.36959546E-02
    2276    (1,2394)              1.36963559E-02
    2277    (1,2395)              1.36960884E-02
    2278    (1,2396)              1.36958208E-02
    2279    (1,2397)              1.36963559E-02
    2280    (1,2398)              1.36956871E-02
    2281    (1,2399)              1.36968910E-02
    2282    (1,2400)              1.36964897E-02
    2283    (1,2401)              5.47669627E-02
    2284    (1,2402)              5.48246200E-02
    2285    (1,2405)              5.47854238E-02
    2286    (1,2406)              5.47858251E-02
    2287    (1,2407)              5.47859589E-02
    2288    (1,2408)              5.47859589E-02
    2289    (1,2409)              5.47856913E-02
    2290    (1,2410)              5.48247538E-02
    2291    (1,2411)              5.48236836E-02
    2292    (1,2412)              5.47856913E-02
    2293    (1,2413)              5.47854238E-02
    2294    (1,2414)              5.47891695E-02
    2295    (1,2415)              5.47898384E-02
    2296    (1,2416)              5.47855575E-02
    2297    (1,2417)              5.47859589E-02
    2298    (1,2418)              5.47862264E-02
    2299    (1,2419)              5.48247538E-02
    2300    (1,2420)              5.48240849E-02
    2301    (1,2421)              5.47854238E-02
    2302    (1,2422)              5.47859589E-02
    2303    (1,2423)              5.47862264E-02
    2304    (1,2424)              5.47858251E-02
    2305    (1,2425)              5.47864940E-02
    2306    (1,2426)              5.47860926E-02
    2307    (1,2427)              5.47859589E-02
    2308    (1,2428)              5.48248876E-02
    2309    (1,2429)              5.48284995E-02
    2310    (1,2430)              5.47895708E-02
    2311    (1,2431)              5.47852900E-02
    2312    (1,2432)              5.47859589E-02
    2313    (1,2433)              5.47751230E-02
    2314    (1,2434)              1.37158872E-02
    2315    (1,2435)              1.36959546E-02
    2316    (1,2436)              1.36963559E-02
    2317    (1,2437)              1.37153521E-02
    2318    (1,2438)              1.36968910E-02
    2319    (1,2439)              1.36959546E-02
    2320    (1,2440)              1.36967573E-02
    2321    (1,2441)              1.36964897E-02
    2322    (1,2442)              5.47775310E-02
    2323    (1,2443)              5.47854238E-02
    2324    (1,2444)              5.48248876E-02
    2325    (1,2445)              5.48250214E-02
    2326    (1,2446)              5.47858251E-02
    2327    (1,2447)              5.47856913E-02
    2328    (1,2448)              5.47856913E-02
    2329    (1,2449)              5.47895708E-02
    2330    (1,2450)              5.47895708E-02
    2331    (1,2451)              5.47859589E-02
    2332    (1,2452)              5.47860926E-02
    2333    (1,2453)              5.48121789E-02
    2334    (1,2454)              1.36963559E-02
    2335    (1,2455)              1.36962222E-02
    2336    (1,2456)              1.37160210E-02
    2337    (1,2457)              1.36962222E-02
    2338    (1,2458)              1.36968910E-02
    2339    (1,2459)              1.36962222E-02
    2340    (1,2460)              1.36960884E-02
    2341    (1,2461)              1.36970248E-02
    2342    (1,2462)              1.36962222E-02
    2343    (1,2463)              1.36964897E-02
    2344    (1,2464)              1.36966235E-02
    2345    (1,2465)              1.36963559E-02
    2346    (1,2466)              5.47875642E-02
    2347    (1,2467)              5.47949218E-02
    2348    (1,2468)              5.47946543E-02
    2349    (1,2469)              5.47949218E-02
    2350    (1,2470)              5.47854238E-02
    2351    (1,2471)              5.48244863E-02
    2352    (1,2472)              5.48243525E-02
    2353    (1,2473)              5.47894370E-02
    2354    (1,2474)              5.47897046E-02
    2355    (1,2475)              5.47772634E-02
    2356    (1,2476)              5.47771297E-02
    2357    (1,2477)              5.48056239E-02
    2358    (1,2478)              1.36964897E-02
    2359    (1,2479)              1.36964897E-02
    2360    (1,2480)              1.36960884E-02
    2361    (1,2481)              1.36964897E-02
    2362    (1,2482)              1.36959546E-02
    2363    (1,2483)              1.36964897E-02
    2364    (1,2484)              1.36964897E-02
    2365    (1,2485)              1.36966235E-02
    2366    (1,2486)              5.47664276E-02
    2367    (1,2489)              5.47858251E-02
    2368    (1,2490)              5.47856913E-02
    2369    (1,2491)              5.47855575E-02
    2370    (1,2492)              5.47859589E-02
    2371    (1,2493)              5.47858251E-02
    2372    (1,2494)              5.48243525E-02
    2373    (1,2495)              5.48238174E-02
    2374    (1,2496)              5.47897046E-02
    2375    (1,2497)              5.47893032E-02
    2376    (1,2498)              5.47859589E-02
    2377    (1,2499)              5.47855575E-02
    2378    (1,2500)              5.47859589E-02
    2379    (1,2501)              5.47856913E-02
    2380    (1,2502)              5.47859589E-02
    2381    (1,2503)              5.48248876E-02
    2382    (1,2504)              5.48248876E-02
    2383    (1,2505)              5.47855575E-02
    2384    (1,2506)              5.47860926E-02
    2385    (1,2507)              5.47860926E-02
    2386    (1,2508)              5.47859589E-02
    2387    (1,2509)              5.47855575E-02
    2388    (1,2510)              5.47851562E-02
    2389    (1,2511)              5.47893032E-02
    2390    (1,2512)              5.48284995E-02
    2391    (1,2513)              5.48244863E-02
    2392    (1,2514)              5.47859589E-02
    2393    (1,2515)              5.47859589E-02
    2394    (1,2516)              5.47753906E-02
    2395    (1,2517)              1.36968910E-02
    2396    (1,2518)              1.36970248E-02
    2397    (1,2519)              1.36963559E-02
    2398    (1,2520)              1.36963559E-02
    2399    (1,2521)              5.48169948E-02
    2400    (1,2522)              5.47859589E-02
    2401    (1,2523)              5.47856913E-02
    2402    (1,2524)              5.47855575E-02
    2403    (1,2525)              5.48250214E-02
    2404    (1,2526)              5.48243525E-02
    2405    (1,2527)              5.47859589E-02
    2406    (1,2528)              5.47894370E-02
    2407    (1,2529)              5.47899721E-02
    2408    (1,2530)              5.47860926E-02
    2409    (1,2531)              5.47858251E-02
    2410    (1,2532)              5.47951894E-02
    2411    (1,2533)              1.36971586E-02
    2412    (1,2534)              1.36960884E-02
    2413    (1,2535)              1.36964897E-02
    2414    (1,2536)              1.36967573E-02
    2415    (1,2537)              1.36962222E-02
    2416    (1,2538)              1.37157534E-02
    2417    (1,2539)              1.36967573E-02
    2418    (1,2540)              1.36959546E-02
    2419    (1,2541)              5.48167273E-02
    2420    (1,2542)              5.47768621E-02
    2421    (1,2543)              5.47856913E-02
    2422    (1,2544)              5.47856913E-02
    2423    (1,2545)              5.47859589E-02
    2424    (1,2546)              5.47855575E-02
    2425    (1,2547)              5.47851562E-02
    2426    (1,2548)              5.47855575E-02
    2427    (1,2549)              5.48282320E-02
    2428    (1,2550)              5.48280982E-02
    2429    (1,2551)              5.47858251E-02
    2430    (1,2552)              5.47858251E-02
    2431    (1,2553)              5.47858251E-02
    2432    (1,2554)              5.47854238E-02
    2433    (1,2555)              5.48056239E-02
    2434    (1,2556)              1.36963559E-02
    2435    (1,2557)              1.36964897E-02
    2436    (1,2558)              1.36970248E-02
    2437    (1,2559)              1.36968910E-02
    2438    (1,2560)              1.36963559E-02
    2439    (1,2561)              1.36980950E-02
    2440    (1,2562)              1.36983626E-02
    2441    (1,2563)              1.36964897E-02
    2442    (1,2567)              5.47854238E-02
    2443    (1,2568)              5.47855575E-02
    2444    (1,2569)              5.47856913E-02
    2445    (1,2570)              5.47860926E-02
    2446    (1,2571)              5.47859589E-02
    2447    (1,2572)              5.48287671E-02
    2448    (1,2573)              5.48284995E-02
    2449    (1,2574)              5.47854238E-02
    2450    (1,2575)              5.47854238E-02
    2451    (1,2576)              5.47855575E-02
    2452    (1,2577)              5.47856913E-02
    2453    (1,2578)              5.47852900E-02
    2454    (1,2579)              5.47858251E-02
    2455    (1,2580)              5.47856913E-02
    2456    (1,2581)              5.48244863E-02
    2457    (1,2582)              5.48243525E-02
    2458    (1,2583)              5.47859589E-02
    2459    (1,2584)              5.47852900E-02
    2460    (1,2585)              5.47860926E-02
    2461    (1,2586)              5.47858251E-02
    2462    (1,2587)              5.47897046E-02
    2463    (1,2588)              5.47898384E-02
    2464    (1,2589)              5.47858251E-02
    2465    (1,2590)              5.48244863E-02
    2466    (1,2591)              5.48244863E-02
    2467    (1,2592)              5.47856913E-02
    2468    (1,2593)              5.47744541E-02
    2469    (1,2594)              1.36964897E-02
    2470    (1,2595)              1.36984963E-02
    2471    (1,2596)              1.36983626E-02
    2472    (1,2597)              1.36968910E-02
    2473    (1,2598)              1.36964897E-02
    2474    (1,2599)              1.36960884E-02
    2475    (1,2600)              1.36962222E-02
    2476    (1,2601)              1.36959546E-02
    2477    (1,2602)              5.47950556E-02
    2478    (1,2603)              5.47856913E-02
    2479    (1,2604)              5.47855575E-02
    2480    (1,2605)              5.47856913E-02
    2481    (1,2606)              5.48244863E-02
    2482    (1,2607)              5.48282320E-02
    2483    (1,2608)              5.47890357E-02
    2484    (1,2609)              5.47855575E-02
    2485    (1,2610)              5.47862264E-02
    2486    (1,2611)              5.47858251E-02
    2487    (1,2612)              5.47832833E-02
    2488    (1,2613)              1.36966235E-02
    2489    (1,2614)              1.36964897E-02
    2490    (1,2615)              1.36967573E-02
    2491    (1,2616)              1.36960884E-02
    2492    (1,2617)              5.47883668E-02
    2493    (1,2618)              5.48254227E-02
    2494    (1,2619)              5.48243525E-02
    2495    (1,2620)              5.47856913E-02
    2496    (1,2621)              5.47858251E-02
    2497    (1,2622)              5.47859589E-02
    2498    (1,2623)              5.47856913E-02
    2499    (1,2624)              5.47862264E-02
    2500    (1,2625)              5.47901059E-02
    2501    (1,2626)              5.47894370E-02
    2502    (1,2627)              5.48251551E-02
    2503    (1,2628)              5.48244863E-02
    2504    (1,2629)              5.47859589E-02
    2505    (1,2630)              5.47858251E-02
    2506    (1,2631)              5.47858251E-02
    2507    (1,2632)              5.47856913E-02
    2508    (1,2633)              5.47959920E-02
    2509    (1,2634)              5.47939854E-02
    2510    (1,2637)              5.47858251E-02
    2511    (1,2638)              5.47855575E-02
    2512    (1,2639)              5.47855575E-02
    2513    (1,2640)              5.47889019E-02
    2514    (1,2641)              5.47898384E-02
    2515    (1,2642)              5.48236836E-02
    2516    (1,2643)              5.48240849E-02
    2517    (1,2644)              5.47852900E-02
    2518    (1,2645)              5.47855575E-02
    2519    (1,2646)              5.47858251E-02
    2520    (1,2647)              5.47858251E-02
    2521    (1,2648)              5.47855575E-02
    2522    (1,2649)              5.47856913E-02
    2523    (1,2650)              5.47855575E-02
    2524    (1,2651)              5.48240849E-02
    2525    (1,2652)              5.48243525E-02
    2526    (1,2653)              5.47863602E-02
    2527    (1,2654)              5.47856913E-02
    2528    (1,2655)              5.47898384E-02
    2529    (1,2656)              5.47893032E-02
    2530    (1,2657)              5.47859589E-02
    2531    (1,2658)              5.47858251E-02
    2532    (1,2659)              5.47859589E-02
    2533    (1,2660)              5.48236836E-02
    2534    (1,2661)              5.48243525E-02
    2535    (1,2662)              5.47850224E-02
    2536    (1,2663)              5.47661601E-02
    2537    (1,2664)              1.36964897E-02
    2538    (1,2665)              1.36966235E-02
    2539    (1,2666)              1.36967573E-02
    2540    (1,2667)              1.36962222E-02
    2541    (1,2668)              5.48041523E-02
    2542    (1,2669)              5.47850224E-02
    2543    (1,2670)              5.47848887E-02
    2544    (1,2671)              5.47856913E-02
    2545    (1,2672)              5.47899721E-02
    2546    (1,2673)              5.48286333E-02
    2547    (1,2674)              5.48224796E-02
    2548    (1,2675)              5.47951894E-02
    2549    (1,2676)              5.47949218E-02
    2550    (1,2677)              5.47834171E-02
    2551    (1,2678)              1.37161547E-02
    2552    (1,2679)              1.36967573E-02
    2553    (1,2680)              1.36964897E-02
    2554    (1,2681)              1.37152183E-02
    2555    (1,2682)              1.36970248E-02
    2556    (1,2683)              1.36964897E-02
    2557    (1,2684)              1.36959546E-02
    2558    (1,2685)              1.36966235E-02
    2559    (1,2686)              5.47771297E-02
    2560    (1,2687)              5.47862264E-02
    2561    (1,2688)              5.48240849E-02
    2562    (1,2689)              5.48246200E-02
    2563    (1,2690)              5.47856913E-02
    2564    (1,2691)              5.47859589E-02
    2565    (1,2692)              5.47854238E-02
    2566    (1,2693)              5.47890357E-02
    2567    (1,2694)              5.47890357E-02
    2568    (1,2695)              5.47860926E-02
    2569    (1,2696)              5.47864940E-02
    2570    (1,2697)              5.48250214E-02
    2571    (1,2698)              5.48244863E-02
    2572    (1,2699)              5.47855575E-02
    2573    (1,2700)              5.47859589E-02
    2574    (1,2701)              5.47851562E-02
    2575    (1,2702)              5.47856913E-02
    2576    (1,2703)              5.47858251E-02
    2577    (1,2706)              5.47852900E-02
    2578    (1,2707)              5.47893032E-02
    2579    (1,2708)              5.47887681E-02
    2580    (1,2709)              5.47860926E-02
    2581    (1,2710)              5.47852900E-02
    2582    (1,2711)              5.48242187E-02
    2583    (1,2712)              5.48242187E-02
    2584    (1,2713)              5.47854238E-02
    2585    (1,2714)              5.47855575E-02
    2586    (1,2715)              5.47859589E-02
    2587    (1,2716)              5.47856913E-02
    2588    (1,2717)              5.47855575E-02
    2589    (1,2718)              5.47858251E-02
    2590    (1,2719)              5.47860926E-02
    2591    (1,2720)              5.48247538E-02
    2592    (1,2721)              5.48239512E-02
    2593    (1,2722)              5.47895708E-02
    2594    (1,2723)              5.47898384E-02
    2595    (1,2724)              5.47855575E-02
    2596    (1,2725)              5.47855575E-02
    2597    (1,2726)              5.47863602E-02
    2598    (1,2727)              5.47856913E-02
    2599    (1,2728)              5.47863602E-02
    2600    (1,2729)              5.48236836E-02
    2601    (1,2730)              5.48243525E-02
    2602    (1,2731)              5.47771297E-02
    2603    (1,2732)              1.36964897E-02
    2604    (1,2733)              1.36964897E-02
    2605    (1,2734)              1.36964897E-02
    2606    (1,2735)              1.36959546E-02
    2607    (1,2736)              1.36960884E-02
    2608    (1,2737)              1.36968910E-02
    2609    (1,2738)              1.36958208E-02
    2610    (1,2739)              1.36962222E-02
    2611    (1,2740)              5.48056239E-02
    2612    (1,2741)              5.47854238E-02
    2613    (1,2742)              5.47893032E-02
    2614    (1,2743)              5.47794038E-02
    2615    (1,2744)              5.47835509E-02
    2616    (1,2745)              1.36966235E-02
    2617    (1,2746)              1.37158872E-02
    2618    (1,2747)              1.36966235E-02
    2619    (1,2748)              1.36967573E-02
    2620    (1,2749)              1.36958208E-02
    2621    (1,2750)              1.36959546E-02
    2622    (1,2751)              1.37154859E-02
    2623    (1,2752)              1.36956871E-02
    2624    (1,2753)              1.36968910E-02
    2625    (1,2754)              1.36963559E-02
    2626    (1,2755)              1.36960884E-02
    2627    (1,2756)              1.36968910E-02
    2628    (1,2757)              1.36963559E-02
    2629    (1,2758)              1.36968910E-02
    2630    (1,2759)              1.36962222E-02
    2631    (1,2760)              1.36958208E-02
    2632    (1,2761)              1.36962222E-02
    2633    (1,2762)              1.36959546E-02
    2634    (1,2763)              1.36963559E-02
    2635    (1,2764)              1.36956871E-02
    2636    (1,2765)              5.48069616E-02
    2637    (1,2766)              5.47854238E-02
    2638    (1,2767)              5.47858251E-02
    2639    (1,2768)              5.47860926E-02
    2640    (1,2769)              5.48246200E-02
    2641    (1,2770)              5.48243525E-02
    2642    (1,2771)              5.47863602E-02
    2643    (1,2772)              5.47894370E-02
    2644    (1,2773)              5.47895708E-02
    2645    (1,2774)              5.47854238E-02
    2646    (1,2775)              5.47856913E-02
    2647    (1,2776)              5.47860926E-02
    2648    (1,2777)              5.47855575E-02
    2649    (1,2778)              5.48240849E-02
    2650    (1,2779)              5.48248876E-02
    2651    (1,2780)              5.47852900E-02
    2652    (1,2781)              5.47858251E-02
    2653    (1,2782)              5.47859589E-02
    2654    (1,2783)              5.47855575E-02
    2655    (1,2786)              5.47895708E-02
    2656    (1,2787)              5.47855575E-02
    2657    (1,2788)              5.47862264E-02
    2658    (1,2789)              5.47856913E-02
    2659    (1,2790)              5.47856913E-02
    2660    (1,2791)              5.48246200E-02
    2661    (1,2792)              5.48248876E-02
    2662    (1,2793)              5.47855575E-02
    2663    (1,2794)              5.47864940E-02
    2664    (1,2795)              5.47866277E-02
    2665    (1,2796)              5.47860926E-02
    2666    (1,2797)              5.47858251E-02
    2667    (1,2798)              5.47856913E-02
    2668    (1,2799)              5.47860926E-02
    2669    (1,2800)              5.48282320E-02
    2670    (1,2801)              5.48287671E-02
    2671    (1,2802)              5.47856913E-02
    2672    (1,2803)              5.47859589E-02
    2673    (1,2804)              5.47862264E-02
    2674    (1,2805)              5.47856913E-02
    2675    (1,2806)              5.47859589E-02
    2676    (1,2807)              5.47860926E-02
    2677    (1,2808)              5.47862264E-02
    2678    (1,2809)              5.48248876E-02
    2679    (1,2810)              5.48244863E-02
    2680    (1,2811)              5.47668289E-02
    2681    (1,2812)              1.36968910E-02
    2682    (1,2813)              1.36970248E-02
    2683    (1,2814)              1.36958208E-02
    2684    (1,2815)              1.36966235E-02
    2685    (1,2816)              1.36963559E-02
    2686    (1,2817)              1.36968910E-02
    2687    (1,2818)              1.36959546E-02
    2688    (1,2819)              1.36960884E-02
    2689    (1,2820)              5.48077643E-02
    2690    (1,2821)              5.48069616E-02
    2691    (1,2822)              1.36964897E-02
    2692    (1,2823)              1.36966235E-02
    2693    (1,2824)              1.36958208E-02
    2694    (1,2825)              1.36959546E-02
    2695    (1,2826)              1.36964897E-02
    2696    (1,2827)              1.36967573E-02
    2697    (1,2828)              1.36963559E-02
    2698    (1,2829)              1.36958208E-02
    2699    (1,2830)              1.36967573E-02
    2700    (1,2831)              1.36970248E-02
    2701    (1,2832)              1.36962222E-02
    2702    (1,2833)              1.36963559E-02
    2703    (1,2834)              5.48164597E-02
    2704    (1,2835)              5.48163259E-02
    2705    (1,2836)              5.47764608E-02
    2706    (1,2837)              5.47764608E-02
    2707    (1,2838)              5.47850224E-02
    2708    (1,2839)              5.47856913E-02
    2709    (1,2840)              5.47850224E-02
    2710    (1,2841)              5.47848887E-02
    2711    (1,2842)              5.47854238E-02
    2712    (1,2843)              5.48244863E-02
    2713    (1,2844)              5.48279644E-02
    2714    (1,2845)              5.47889019E-02
    2715    (1,2846)              5.47860926E-02
    2716    (1,2847)              5.47856913E-02
    2717    (1,2848)              5.47860926E-02
    2718    (1,2849)              5.47860926E-02
    2719    (1,2850)              5.47855575E-02
    2720    (1,2851)              5.47856913E-02
    2721    (1,2852)              5.48240849E-02
    2722    (1,2853)              5.48239512E-02
    2723    (1,2854)              5.47854238E-02
    2724    (1,2857)              5.47858251E-02
    2725    (1,2858)              5.47859589E-02
    2726    (1,2859)              5.47858251E-02
    2727    (1,2860)              5.47855575E-02
    2728    (1,2861)              5.47858251E-02
    2729    (1,2862)              5.48247538E-02
    2730    (1,2863)              5.48247538E-02
    2731    (1,2864)              5.47854238E-02
    2732    (1,2865)              5.47855575E-02
    2733    (1,2866)              5.47851562E-02
    2734    (1,2867)              5.47855575E-02
    2735    (1,2868)              5.47851562E-02
    2736    (1,2869)              5.47897046E-02
    2737    (1,2870)              5.47893032E-02
    2738    (1,2871)              5.48246200E-02
    2739    (1,2872)              5.48244863E-02
    2740    (1,2873)              5.47858251E-02
    2741    (1,2874)              5.47858251E-02
    2742    (1,2875)              5.47855575E-02
    2743    (1,2876)              5.47863602E-02
    2744    (1,2877)              5.47863602E-02
    2745    (1,2878)              5.47866277E-02
    2746    (1,2879)              5.47855575E-02
    2747    (1,2880)              5.48244863E-02
    2748    (1,2881)              5.48247538E-02
    2749    (1,2882)              5.47656250E-02
    2750    (1,2883)              1.36963559E-02
    2751    (1,2884)              1.36963559E-02
    2752    (1,2885)              1.36962222E-02
    2753    (1,2886)              1.36987639E-02
    2754    (1,2887)              1.36987639E-02
    2755    (1,2888)              1.36966235E-02
    2756    (1,2889)              1.36960884E-02
    2757    (1,2890)              1.36959546E-02
    2758    (1,2891)              1.36963559E-02
    2759    (1,2892)              1.36966235E-02
    2760    (1,2893)              1.36960884E-02
    2761    (1,2894)              1.36958208E-02
    2762    (1,2895)              1.37164223E-02
    2763    (1,2896)              1.36968910E-02
    2764    (1,2897)              1.36962222E-02
    2765    (1,2898)              1.37156196E-02
    2766    (1,2899)              5.47880993E-02
    2767    (1,2900)              5.47963934E-02
    2768    (1,2901)              5.47856913E-02
    2769    (1,2902)              5.48239512E-02
    2770    (1,2903)              5.48239512E-02
    2771    (1,2904)              5.47859589E-02
    2772    (1,2905)              5.47856913E-02
    2773    (1,2906)              5.47856913E-02
    2774    (1,2907)              5.47858251E-02
    2775    (1,2908)              5.47858251E-02
    2776    (1,2909)              5.47855575E-02
    2777    (1,2910)              5.47901059E-02
    2778    (1,2911)              5.48280982E-02
    2779    (1,2912)              5.48243525E-02
    2780    (1,2913)              5.47856913E-02
    2781    (1,2914)              5.47864940E-02
    2782    (1,2915)              5.47856913E-02
    2783    (1,2916)              5.47859589E-02
    2784    (1,2917)              5.47860926E-02
    2785    (1,2918)              5.47859589E-02
    2786    (1,2919)              5.47858251E-02
    2787    (1,2922)              5.47864940E-02
    2788    (1,2923)              5.47855575E-02
    2789    (1,2924)              5.47851562E-02
    2790    (1,2925)              5.47854238E-02
    2791    (1,2926)              5.47854238E-02
    2792    (1,2927)              5.48246200E-02
    2793    (1,2928)              5.48242187E-02
    2794    (1,2929)              5.47855575E-02
    2795    (1,2930)              5.47854238E-02
    2796    (1,2931)              5.47855575E-02
    2797    (1,2932)              5.47901059E-02
    2798    (1,2933)              5.47901059E-02
    2799    (1,2934)              5.47858251E-02
    2800    (1,2935)              5.47854238E-02
    2801    (1,2936)              5.48242187E-02
    2802    (1,2937)              5.48240849E-02
    2803    (1,2938)              5.47848887E-02
    2804    (1,2939)              5.47855575E-02
    2805    (1,2940)              5.47858251E-02
    2806    (1,2941)              5.47852900E-02
    2807    (1,2942)              5.47855575E-02
    2808    (1,2943)              5.47855575E-02
    2809    (1,2944)              5.47852900E-02
    2810    (1,2945)              5.48246200E-02
    2811    (1,2946)              5.48287671E-02
    2812    (1,2947)              5.47794038E-02
    2813    (1,2948)              5.47775310E-02
    2814    (1,2949)              5.47771297E-02
    2815    (1,2950)              5.47771297E-02
    2816    (1,2951)              5.47855575E-02
    2817    (1,2952)              5.47858251E-02
    2818    (1,2953)              5.47858251E-02
    2819    (1,2954)              5.47860926E-02
    2820    (1,2955)              5.48247538E-02
    2821    (1,2956)              5.48247538E-02
    2822    (1,2957)              5.47860926E-02
    2823    (1,2958)              5.47855575E-02
    2824    (1,2959)              5.47863602E-02
    2825    (1,2960)              5.47856913E-02
    2826    (1,2961)              5.47898384E-02
    2827    (1,2962)              5.47891695E-02
    2828    (1,2963)              5.47855575E-02
    2829    (1,2964)              5.48240849E-02
    2830    (1,2965)              5.48243525E-02
    2831    (1,2966)              5.47855575E-02
    2832    (1,2967)              5.47854238E-02
    2833    (1,2968)              5.47858251E-02
    2834    (1,2969)              5.47852900E-02
    2835    (1,2972)              5.47858251E-02
    2836    (1,2973)              5.47856913E-02
    2837    (1,2974)              5.47863602E-02
    2838    (1,2975)              5.47860926E-02
    2839    (1,2976)              5.47855575E-02
    2840    (1,2977)              5.48243525E-02
    2841    (1,2978)              5.48244863E-02
    2842    (1,2979)              5.47856913E-02
    2843    (1,2980)              5.47890357E-02
    2844    (1,2981)              5.47891695E-02
    2845    (1,2982)              5.47855575E-02
    2846    (1,2983)              5.47858251E-02
    2847    (1,2984)              5.47859589E-02
    2848    (1,2985)              5.47863602E-02
    2849    (1,2986)              5.48243525E-02
    2850    (1,2987)              5.48243525E-02
    2851    (1,2988)              5.47860926E-02
    2852    (1,2989)              5.47862264E-02
    2853    (1,2990)              5.47854238E-02
    2854    (1,2991)              5.47862264E-02
    2855    (1,2992)              5.47854238E-02
    2856    (1,2993)              5.47864940E-02
    2857    (1,2994)              5.47897046E-02
    2858    (1,2995)              5.48284995E-02
    2859    (1,2996)              5.48244863E-02
    2860    (1,2997)              5.47854238E-02
    2861    (1,2998)              5.47856913E-02
    2862    (1,2999)              5.47860926E-02
    2863    (1,3000)              5.47859589E-02
    2864    (1,3001)              5.47855575E-02
    2865    (1,3002)              5.47859589E-02
    2866    (1,3003)              5.47856913E-02
    2867    (1,3004)              5.47854238E-02
    2868    (1,3005)              5.48238174E-02
    2869    (1,3006)              5.48244863E-02
    2870    (1,3007)              5.47859589E-02
    2871    (1,3008)              5.47854238E-02
    2872    (1,3009)              5.47894370E-02
    2873    (1,3010)              5.47898384E-02
    2874    (1,3011)              5.47852900E-02
    2875    (1,3012)              5.47858251E-02
    2876    (1,3013)              5.47854238E-02
    2877    (1,3014)              5.48246200E-02
    2878    (1,3019)              5.47862264E-02
    2879    (1,3020)              5.47856913E-02
    2880    (1,3021)              5.47862264E-02
    2881    (1,3022)              5.47855575E-02
    2882    (1,3023)              5.47856913E-02
    2883    (1,3024)              5.48244863E-02
    2884    (1,3025)              5.48283657E-02
    2885    (1,3026)              5.47898384E-02
    2886    (1,3027)              5.47852900E-02
    2887    (1,3028)              5.47856913E-02
    2888    (1,3029)              5.47854238E-02
    2889    (1,3030)              5.47859589E-02
    2890    (1,3031)              5.47858251E-02
    2891    (1,3032)              5.47856913E-02
    2892    (1,3033)              5.48239512E-02
    2893    (1,3034)              5.48244863E-02
    2894    (1,3035)              5.47860926E-02
    2895    (1,3036)              5.47858251E-02
    2896    (1,3037)              5.47859589E-02
    2897    (1,3038)              5.47854238E-02
    2898    (1,3039)              5.47895708E-02
    2899    (1,3040)              5.47893032E-02
    2900    (1,3041)              5.47858251E-02
    2901    (1,3042)              5.48250214E-02
    2902    (1,3043)              5.48242187E-02
    2903    (1,3044)              5.47862264E-02
    2904    (1,3045)              5.47851562E-02
    2905    (1,3046)              5.47859589E-02
    2906    (1,3047)              5.47859589E-02
    2907    (1,3048)              5.47854238E-02
    2908    (1,3049)              5.47859589E-02
    2909    (1,3050)              5.47858251E-02
    2910    (1,3051)              5.47858251E-02
    2911    (1,3052)              5.48244863E-02
    2912    (1,3053)              5.48243525E-02
    2913    (1,3054)              5.47893032E-02
    2914    (1,3062)              5.47855575E-02
    2915    (1,3063)              5.47855575E-02
    2916    (1,3064)              5.47856913E-02
    2917    (1,3065)              5.47854238E-02
    2918    (1,3066)              5.47901059E-02
    2919    (1,3067)              5.48289009E-02
    2920    (1,3068)              5.48244863E-02
    2921    (1,3069)              5.47848887E-02
    2922    (1,3070)              5.47854238E-02
    2923    (1,3071)              5.47863602E-02
    2924    (1,3072)              5.47858251E-02
    2925    (1,3073)              5.47858251E-02
    2926    (1,3074)              5.47856913E-02
    2927    (1,3075)              5.47863602E-02
    2928    (1,3076)              5.48244863E-02
    2929    (1,3077)              5.48247538E-02
    2930    (1,3098)              5.47862264E-02
    2931    (1,3099)              5.47862264E-02
    2932    (1,3100)              5.47901059E-02
    2933    (1,3101)              5.47895708E-02
    2934    (1,3102)              5.47852900E-02
    2935    (1,3103)              5.48246200E-02
    2936    (1,3104)              5.48243525E-02
    2937    (1,3105)              5.47855575E-02
    2938    (1,3106)              5.47854238E-02
    2939    (1,3107)              5.47859589E-02
    2940    (1,3108)              5.47856913E-02
    2941    (1,3109)              5.47856913E-02
    2942    (1,3110)              5.47854238E-02
    2943    (1,3111)              5.47855575E-02
    2944    (1,3113)              5.47858251E-02
    2945    (1,3114)              5.47894370E-02
    2946    (1,3115)              5.47895708E-02
    2947    (1,3116)              5.47860926E-02
    2948    (1,3117)              5.47852900E-02
    2949    (1,3118)              5.47856913E-02
    2950    (1,3119)              5.48239512E-02
    2951    (1,3120)              5.48247538E-02
    2952    (1,3121)              5.47856913E-02
    2953    (1,3122)              5.47858251E-02
    2954    (1,3123)              5.47860926E-02
    2955    (1,3124)              5.47856913E-02
 -----------------------------------------------



 UBDSV06 SAVING              SFR IN MODEL EXPERIMENTAL     PACKAGE EXPERIMENTAL    CONNECTED TO MODEL EXPERIMENTAL     PACKAGE SFR              ON UNIT   1019 AT TIME STEP      1, STRESS PERIOD      1

 SFR PACKAGE (SFR) FLOW RATES   PERIOD      1   STEP        1
 -----------------------------------------------
   NUMBER   CELLID                    RATE      
 -----------------------------------------------
     1      (1,2565)              0.0000000     
     2      (1,2563)              0.0000000     
     3      (1,2561)              0.0000000     
     4      (1,2560)              0.0000000     
     5      (1,2557)              0.0000000     
     6      (1,2485)              0.0000000     
     7      (1,2484)              0.0000000     
     8      (1,2481)              0.0000000     
     9      (1,2479)              0.0000000     
     10     (1,2478)              0.0000000     
     11     (1,2399)              0.0000000     
     12     (1,2396)              0.0000000     
     13     (1,2394)              0.0000000     
     14     (1,2393)              0.0000000     
     15     (1,2304)              0.0000000     
     16     (1,2301)              0.0000000     
     17     (1,2300)              0.0000000     
     18     (1,2389)              0.0000000     
     19     (1,2386)              0.0000000     
     20     (1,2385)              0.0000000     
     21     (1,2296)              0.0000000     
     22     (1,2293)              0.0000000     
     23     (1,2292)              0.0000000     
     24     (1,2289)              0.0000000     
     25     (1,2288)              0.0000000     
     26     (1,2286)              0.0000000     
     27     (1,2283)              0.0000000     
     28     (1,2282)              0.0000000     
     29     (1,2279)              0.0000000     
     30     (1,2278)              0.0000000     
     31     (1,2275)              0.0000000     
     32     (1,2277)              0.0000000     
     33     (1,2276)              0.0000000     
     34     (1,2273)              0.0000000     
     35     (1,2272)              0.0000000     
     36     (1,2376)              0.0000000     
     37     (1,2373)              0.0000000     
     38     (1,2372)              0.0000000     
     39     (1,2369)              0.0000000     
     40     (1,2368)              0.0000000     
     41     (1,2370)              0.0000000     
     42     (1,2367)              0.0000000     
     43     (1,2366)              0.0000000     
     44     (1,2363)              0.0000000     
     45     (1,2362)              0.0000000     
     46     (1,2462)              0.0000000     
     47     (1,2459)              0.0000000     
     48     (1,2458)              0.0000000     
     49     (1,2460)              0.0000000     
     50     (1,2457)              0.0000000     
     51     (1,2538)              0.0000000     
     52     (1,2537)              0.0000000     
     53     (1,2539)              0.0000000     
     54     (1,2536)              0.0000000     
     55     (1,2614)              0.0000000     
     56     (1,2613)              0.0000000     
     57     (1,2615)              0.0000000     
     58     (1,2682)              0.0000000     
     59     (1,2684)              0.0000000     
     60     (1,2681)              0.0000000     
     61     (1,2762)              0.0000000     
     62     (1,2761)              0.0000000     
     63     (1,2763)              0.0000000     
     64     (1,2760)              0.0000000     
     65     (1,2759)              0.0000000     
     66     (1,2756)              0.0000000     
     67     (1,2755)              0.0000000     
     68     (1,2752)              0.0000000     
     69     (1,2751)              0.0000000     
     70     (1,2748)              0.0000000     
     71     (1,2831)              0.0000000     
     72     (1,2830)              0.0000000     
     73     (1,2827)              0.0000000     
     74     (1,2829)              0.0000000     
     75     (1,2828)              0.0000000     
     76     (1,2825)              0.0000000     
     77     (1,2824)              0.0000000     
     78     (1,2895)              0.0000000     
     79     (1,2892)              0.0000000     
     80     (1,2891)              0.0000000     
     81     (1,2888)              0.0000000     
     82     (1,2887)              0.0000000     
     83     (1,2884)              0.0000000     
     84     (1,2819)              0.0000000     
     85     (1,2818)              0.0000000     
     86     (1,2816)              0.0000000     
     87     (1,2813)              0.0000000     
     88     (1,2739)              0.0000000     
     89     (1,2738)              0.0000000     
     90     (1,2736)              0.0000000     
     91     (1,2733)              0.0000000     
     92     (1,2667)              0.0000000     
     93     (1,2666)              0.0000000     
     94     (1,2664)              0.0000000     
     95     (1,2600)             -9.6871303     
     96     (1,2597)             -96.647261     
     97     (1,2595)             -89.224352     
     98     (1,2520)             -26.141242     
     99     (1,2519)             -39.878070     
    100     (1,2517)             -30.566334     
    101     (1,2436)             -11.944879     
    102     (1,2434)              3.8661071     
    103     (1,2435)             -13.708764     
    104     (1,2438)             -19.086814     
    105     (1,2344)             -12.167146     
    106     (1,2342)              9.1184888     
    107     (1,2343)             -12.106349     
    108     (1,2251)              5.9000554     
    109     (1,2249)             -24.848078     
    110     (1,2183)             -58.758363     
    111     (1,2181)             -62.131130     
    112     (1,2114)             -35.795594     
    113     (1,2112)             -21.979958     
    114     (1,2044)             -0.16727898    
    115     (1,2043)              21.016565     
    116     (1,2041)              45.258685     
    117     (1,1972)              18.092290     
    118     (1,1969)             -22.007312     
    119     (1,1967)              13.405756     
    120     (1,1966)              2.1732346     
    121     (1,1893)             -0.62335714    
    122     (1,1894)             -9.1709500     
    123     (1,1892)              19.398315     
    124     (1,1895)             -16.750039     
    125     (1,1896)             -47.932484     
    126     (1,1819)              3.5076691     
    127     (1,1822)             -41.263395     
    128     (1,1820)             -142.46751     
    129     (1,1745)             -130.45450     
    130     (1,1742)             -101.23877     
    131     (1,1741)             -63.284806     
    132     (1,1738)             -91.250210     
    133     (1,1737)             -38.329232     
    134     (1,1735)             -50.904536     
    135     (1,1732)             -10.337767     
    136     (1,1653)             -44.618576     
    137     (1,1651)             -37.621384     
    138     (1,1654)             -49.256096     
    139     (1,1655)             -112.62395     
    140     (1,1658)             -55.413616     
    141     (1,1548)             -142.43712     
    142     (1,1546)             -107.92967     
    143     (1,1543)             -86.594917     
    144     (1,1453)             -60.187180     
    145     (1,1452)             -97.760485     
    146     (1,1449)             -73.590926     
    147     (1,1448)             -23.950061     
    148     (1,1538)             -49.164810     
    149     (1,1535)             -49.348639     
    150     (1,1537)             -50.159287     
    151     (1,1647)             -46.592922     
    152     (1,1649)             -63.360252     
    153     (1,1648)             -42.201725     
    154     (1,1645)             -51.801895     
    155     (1,1644)             -62.956641     
    156     (1,1642)             -63.171960     
    157     (1,1639)             -97.375886     
    158     (1,1638)             -41.874691     
    159     (1,1640)             -62.106589     
    160     (1,1637)             -71.059283     
    161     (1,1636)             -59.941252     
    162     (1,1633)             -47.036119     
    163     (1,1632)             -45.404138     
    164     (1,1629)             -30.913350     
    165     (1,1628)             -18.523919     
    166     (1,1625)             -30.091440     
    167     (1,1624)             -34.826419     
    168     (1,1621)             -17.751145     
    169     (1,1620)             -7.1087639     
    170     (1,1617)              7.1818821     
    171     (1,1615)             -14.820465     
    172     (1,1614)             -9.7380188     
    173     (1,1611)              8.3127488     
    174     (1,1525)              9.1712155     
    175     (1,1524)             -35.244045     
    176     (1,1521)             -8.3956965     
    177     (1,1519)             -5.5759103     
    178     (1,1518)              4.1300227     
    179     (1,1515)              12.517202     
    180     (1,1431)              24.105809     
    181     (1,1429)              34.399496     
    182     (1,1432)             -4.3924015     
    183     (1,1353)              2.9067246     
    184     (1,1351)              12.259710     
    185     (1,1274)              34.185832     
    186     (1,1272)              62.553116     
    187     (1,1194)             -91.860394     
    188     (1,1192)             -117.37434     
    189     (1,1189)             -14.529649     
    190     (1,1111)             -125.87784     
    191     (1,1109)             -80.954809     
    192     (1,1108)             -39.113118     
    193     (1,1030)             -76.418104     
    194     (1,1028)             -74.475104     
    195     (1,950)              -20.915924     
    196     (1,947)              -94.993847     
    197     (1,945)              -73.073347     
    198     (1,944)              -76.154989     
    199     (1,866)              -42.688409     
    200     (1,863)              -61.074907     
    201     (1,861)              -55.888179     
    202     (1,860)              -35.425008     
    203     (1,782)              -58.577426     
    204     (1,779)              -17.082893     
    205     (1,777)              -69.081495     
    206     (1,700)              -1.1883978     
    207     (1,699)              -51.276965     
    208     (1,697)              -11.773594     
    209     (1,694)              -22.646495     
    210     (1,618)              -41.009970     
    211     (1,617)              -29.771499     
    212     (1,615)              -41.265388     
    213     (1,612)              -9.1929958     
    214     (1,537)              -6.3765235     
    215     (1,535)              -82.727251     
    216     (1,534)              -93.695491     
    217     (1,531)              -1.6275770     
    218     (1,457)              -72.986183     
    219     (1,455)              -70.307355     
    220     (1,382)              -39.983789     
    221     (1,381)              -58.815354     
    222     (1,378)              -41.983809     
    223     (1,377)              -36.496118     
    224     (1,375)              -9.8482234     
    225     (1,372)              -36.593711     
    226     (1,371)              -9.8058826     
    227     (1,299)              -23.630287     
    228     (1,296)              -15.998354     
    229     (1,294)              -3.4765089     
    230     (1,293)              -11.302960     
    231     (1,290)               2.6096859     
    232     (1,289)               13.145689     
    233     (1,286)               4.9021710     
    234     (1,250)               32.719387     
    235     (1,249)               73.667613     
    236     (1,246)              -16.025887     
    237     (1,244)              -40.071245     
    238     (1,243)              -143.72285     
    239     (1,209)              -71.464755     
    240     (1,206)              -101.21056     
    241     (1,204)              -55.374194     
    242     (1,203)              -84.721595     
    243     (1,171)              -49.070834     
    244     (1,168)              -88.482687     
    245     (1,166)              -7.4132786     
    246     (1,165)              -92.872213     
    247     (1,135)              -7.3015353     
    248     (1,132)              -86.090338     
    249     (1,130)              -6.8045482     
    250     (1,129)              -81.893556     
    251     (1,101)              -6.7111634     
    252     (1,98)               -78.555915     
    253     (1,96)               -6.3698584     
    254     (1,95)               -75.534058     
    255     (1,69)               -6.3772666     
    256     (1,66)               -72.022792     
    257     (1,65)               -3.7235738     
    258     (1,63)               -67.843029     
    259     (1,60)               -17.584533     
    260     (1,36)               -121.07466     
    261     (1,35)               -51.629956     
    262     (1,33)               -98.300019     
    263     (1,30)               -93.760746     
    264     (1,8)                -110.44541     
    265     (1,7)                -131.26637     
    266     (1,5)                -22.767812     
 -----------------------------------------------



 UBDSV06 SAVING     FLOW-JA-FACE IN MODEL EXPERIMENTAL     PACKAGE SFR             CONNECTED TO MODEL EXPERIMENTAL     PACKAGE SFR              ON UNIT   1015 AT TIME STEP      1, STRESS PERIOD      1
 UBDSV06 SAVING              GWF IN MODEL EXPERIMENTAL     PACKAGE SFR             CONNECTED TO MODEL EXPERIMENTAL     PACKAGE EXPERIMENTAL     ON UNIT   1015 AT TIME STEP      1, STRESS PERIOD      1
 UBDSV06 SAVING         RAINFALL IN MODEL EXPERIMENTAL     PACKAGE SFR             CONNECTED TO MODEL EXPERIMENTAL     PACKAGE SFR              ON UNIT   1015 AT TIME STEP      1, STRESS PERIOD      1
 UBDSV06 SAVING      EVAPORATION IN MODEL EXPERIMENTAL     PACKAGE SFR             CONNECTED TO MODEL EXPERIMENTAL     PACKAGE SFR              ON UNIT   1015 AT TIME STEP      1, STRESS PERIOD      1
 UBDSV06 SAVING           RUNOFF IN MODEL EXPERIMENTAL     PACKAGE SFR             CONNECTED TO MODEL EXPERIMENTAL     PACKAGE SFR              ON UNIT   1015 AT TIME STEP      1, STRESS PERIOD      1
 UBDSV06 SAVING       EXT-INFLOW IN MODEL EXPERIMENTAL     PACKAGE SFR             CONNECTED TO MODEL EXPERIMENTAL     PACKAGE SFR              ON UNIT   1015 AT TIME STEP      1, STRESS PERIOD      1
 UBDSV06 SAVING      EXT-OUTFLOW IN MODEL EXPERIMENTAL     PACKAGE SFR             CONNECTED TO MODEL EXPERIMENTAL     PACKAGE SFR              ON UNIT   1015 AT TIME STEP      1, STRESS PERIOD      1
 UBDSV06 SAVING          STORAGE IN MODEL EXPERIMENTAL     PACKAGE SFR             CONNECTED TO MODEL EXPERIMENTAL     PACKAGE SFR              ON UNIT   1015 AT TIME STEP      1, STRESS PERIOD      1
1
  HEAD IN LAYER   1 AT END OF TIME STEP   1 IN STRESS PERIOD    1
  ---------------------------------------------------------------------------

                1               2               3               4               5               6               7               8               9              10
               11              12              13              14              15              16              17              18              19              20
               21              22              23              24              25              26              27              28              29              30
               31              32              33              34              35              36              37              38              39              40
               41              42              43              44              45              46              47              48              49              50
               51              52              53              54              55              56              57              58              59              60
               61              62              63              64              65              66              67              68              69              70
               71              72              73              74              75              76              77              78              79              80
               81              82              83              84              85              86              87              88              89              90
               91              92              93              94              95              96              97              98              99             100
              101             102             103             104             105             106             107             108             109             110
              111             112             113             114             115             116             117             118             119             120
              121             122             123             124             125             126             127             128             129             130
              131             132             133             134             135             136             137             138             139             140
              141             142             143             144             145             146             147             148             149             150
              151             152             153             154             155             156             157             158             159             160
              161             162             163             164             165             166             167             168             169             170
              171             172             173             174             175             176             177             178             179             180
              181             182             183             184             185             186             187             188             189             190
              191             192             193             194             195             196             197             198             199             200
              201             202             203             204             205             206             207             208             209             210
              211             212             213             214             215             216             217             218             219             220
              221             222             223             224             225             226             227             228             229             230
              231             232             233             234             235             236             237             238             239             240
              241             242             243             244             245             246             247             248             249             250
              251             252             253             254             255             256             257             258             259             260
              261             262             263             264             265             266             267             268             269             270
              271             272             273             274             275             276             277             278             279             280
              281             282             283             284             285             286             287             288             289             290
              291             292             293             294             295             296             297             298             299             300
              301             302             303             304             305             306             307             308             309             310
              311             312             313             314             315             316             317             318             319             320
              321             322             323             324             325             326             327             328             329             330
              331             332             333             334             335             336             337             338             339             340
              341             342             343             344             345             346             347             348             349             350
              351             352             353             354             355             356             357             358             359             360
              361             362             363             364             365             366             367             368             369             370
              371             372             373             374             375             376             377             378             379             380
              381             382             383             384             385             386             387             388             389             390
              391             392             393             394             395             396             397             398             399             400
              401             402             403             404             405             406             407             408             409             410
              411             412             413             414             415             416             417             418             419             420
              421             422             423             424             425             426             427             428             429             430
              431             432             433             434             435             436             437             438             439             440
              441             442             443             444             445             446             447             448             449             450
              451             452             453             454             455             456             457             458             459             460
              461             462             463             464             465             466             467             468             469             470
              471             472             473             474             475             476             477             478             479             480
              481             482             483             484             485             486             487             488             489             490
              491             492             493             494             495             496             497             498             499             500
              501             502             503             504             505             506             507             508             509             510
              511             512             513             514             515             516             517             518             519             520
              521             522             523             524             525             526             527             528             529             530
              531             532             533             534             535             536             537             538             539             540
              541             542             543             544             545             546             547             548             549             550
              551             552             553             554             555             556             557             558             559             560
              561             562             563             564             565             566             567             568             569             570
              571             572             573             574             575             576             577             578             579             580
              581             582             583             584             585             586             587             588             589             590
              591             592             593             594             595             596             597             598             599             600
              601             602             603             604             605             606             607             608             609             610
              611             612             613             614             615             616             617             618             619             620
              621             622             623             624             625             626             627             628             629             630
              631             632             633             634             635             636             637             638             639             640
              641             642             643             644             645             646             647             648             649             650
              651             652             653             654             655             656             657             658             659             660
              661             662             663             664             665             666             667             668             669             670
              671             672             673             674             675             676             677             678             679             680
              681             682             683             684             685             686             687             688             689             690
              691             692             693             694             695             696             697             698             699             700
              701             702             703             704             705             706             707             708             709             710
              711             712             713             714             715             716             717             718             719             720
              721             722             723             724             725             726             727             728             729             730
              731             732             733             734             735             736             737             738             739             740
              741             742             743             744             745             746             747             748             749             750
              751             752             753             754             755             756             757             758             759             760
              761             762             763             764             765             766             767             768             769             770
              771             772             773             774             775             776             777             778             779             780
              781             782             783             784             785             786             787             788             789             790
              791             792             793             794             795             796             797             798             799             800
              801             802             803             804             805             806             807             808             809             810
              811             812             813             814             815             816             817             818             819             820
              821             822             823             824             825             826             827             828             829             830
              831             832             833             834             835             836             837             838             839             840
              841             842             843             844             845             846             847             848             849             850
              851             852             853             854             855             856             857             858             859             860
              861             862             863             864             865             866             867             868             869             870
              871             872             873             874             875             876             877             878             879             880
              881             882             883             884             885             886             887             888             889             890
              891             892             893             894             895             896             897             898             899             900
              901             902             903             904             905             906             907             908             909             910
              911             912             913             914             915             916             917             918             919             920
              921             922             923             924             925             926             927             928             929             930
              931             932             933             934             935             936             937             938             939             940
              941             942             943             944             945             946             947             948             949             950
              951             952             953             954             955             956             957             958             959             960
              961             962             963             964             965             966             967             968             969             970
              971             972             973             974             975             976             977             978             979             980
              981             982             983             984             985             986             987             988             989             990
              991             992             993             994             995             996             997             998             999            1000
             1001            1002            1003            1004            1005            1006            1007            1008            1009            1010
             1011            1012            1013            1014            1015            1016            1017            1018            1019            1020
             1021            1022            1023            1024            1025            1026            1027            1028            1029            1030
             1031            1032            1033            1034            1035            1036            1037            1038            1039            1040
             1041            1042            1043            1044            1045            1046            1047            1048            1049            1050
             1051            1052            1053            1054            1055            1056            1057            1058            1059            1060
             1061            1062            1063            1064            1065            1066            1067            1068            1069            1070
             1071            1072            1073            1074            1075            1076            1077            1078            1079            1080
             1081            1082            1083            1084            1085            1086            1087            1088            1089            1090
             1091            1092            1093            1094            1095            1096            1097            1098            1099            1100
             1101            1102            1103            1104            1105            1106            1107            1108            1109            1110
             1111            1112            1113            1114            1115            1116            1117            1118            1119            1120
             1121            1122            1123            1124            1125            1126            1127            1128            1129            1130
             1131            1132            1133            1134            1135            1136            1137            1138            1139            1140
             1141            1142            1143            1144            1145            1146            1147            1148            1149            1150
             1151            1152            1153            1154            1155            1156            1157            1158            1159            1160
             1161            1162            1163            1164            1165            1166            1167            1168            1169            1170
             1171            1172            1173            1174            1175            1176            1177            1178            1179            1180
             1181            1182            1183            1184            1185            1186            1187            1188            1189            1190
             1191            1192            1193            1194            1195            1196            1197            1198            1199            1200
             1201            1202            1203            1204            1205            1206            1207            1208            1209            1210
             1211            1212            1213            1214            1215            1216            1217            1218            1219            1220
             1221            1222            1223            1224            1225            1226            1227            1228            1229            1230
             1231            1232            1233            1234            1235            1236            1237            1238            1239            1240
             1241            1242            1243            1244            1245            1246            1247            1248            1249            1250
             1251            1252            1253            1254            1255            1256            1257            1258            1259            1260
             1261            1262            1263            1264            1265            1266            1267            1268            1269            1270
             1271            1272            1273            1274            1275            1276            1277            1278            1279            1280
             1281            1282            1283            1284            1285            1286            1287            1288            1289            1290
             1291            1292            1293            1294            1295            1296            1297            1298            1299            1300
             1301            1302            1303            1304            1305            1306            1307            1308            1309            1310
             1311            1312            1313            1314            1315            1316            1317            1318            1319            1320
             1321            1322            1323            1324            1325            1326            1327            1328            1329            1330
             1331            1332            1333            1334            1335            1336            1337            1338            1339            1340
             1341            1342            1343            1344            1345            1346            1347            1348            1349            1350
             1351            1352            1353            1354            1355            1356            1357            1358            1359            1360
             1361            1362            1363            1364            1365            1366            1367            1368            1369            1370
             1371            1372            1373            1374            1375            1376            1377            1378            1379            1380
             1381            1382            1383            1384            1385            1386            1387            1388            1389            1390
             1391            1392            1393            1394            1395            1396            1397            1398            1399            1400
             1401            1402            1403            1404            1405            1406            1407            1408            1409            1410
             1411            1412            1413            1414            1415            1416            1417            1418            1419            1420
             1421            1422            1423            1424            1425            1426            1427            1428            1429            1430
             1431            1432            1433            1434            1435            1436            1437            1438            1439            1440
             1441            1442            1443            1444            1445            1446            1447            1448            1449            1450
             1451            1452            1453            1454            1455            1456            1457            1458            1459            1460
             1461            1462            1463            1464            1465            1466            1467            1468            1469            1470
             1471            1472            1473            1474            1475            1476            1477            1478            1479            1480
             1481            1482            1483            1484            1485            1486            1487            1488            1489            1490
             1491            1492            1493            1494            1495            1496            1497            1498            1499            1500
             1501            1502            1503            1504            1505            1506            1507            1508            1509            1510
             1511            1512            1513            1514            1515            1516            1517            1518            1519            1520
             1521            1522            1523            1524            1525            1526            1527            1528            1529            1530
             1531            1532            1533            1534            1535            1536            1537            1538            1539            1540
             1541            1542            1543            1544            1545            1546            1547            1548            1549            1550
             1551            1552            1553            1554            1555            1556            1557            1558            1559            1560
             1561            1562            1563            1564            1565            1566            1567            1568            1569            1570
             1571            1572            1573            1574            1575            1576            1577            1578            1579            1580
             1581            1582            1583            1584            1585            1586            1587            1588            1589            1590
             1591            1592            1593            1594            1595            1596            1597            1598            1599            1600
             1601            1602            1603            1604            1605            1606            1607            1608            1609            1610
             1611            1612            1613            1614            1615            1616            1617            1618            1619            1620
             1621            1622            1623            1624            1625            1626            1627            1628            1629            1630
             1631            1632            1633            1634            1635            1636            1637            1638            1639            1640
             1641            1642            1643            1644            1645            1646            1647            1648            1649            1650
             1651            1652            1653            1654            1655            1656            1657            1658            1659            1660
             1661            1662            1663            1664            1665            1666            1667            1668            1669            1670
             1671            1672            1673            1674            1675            1676            1677            1678            1679            1680
             1681            1682            1683            1684            1685            1686            1687            1688            1689            1690
             1691            1692            1693            1694            1695            1696            1697            1698            1699            1700
             1701            1702            1703            1704            1705            1706            1707            1708            1709            1710
             1711            1712            1713            1714            1715            1716            1717            1718            1719            1720
             1721            1722            1723            1724            1725            1726            1727            1728            1729            1730
             1731            1732            1733            1734            1735            1736            1737            1738            1739            1740
             1741            1742            1743            1744            1745            1746            1747            1748            1749            1750
             1751            1752            1753            1754            1755            1756            1757            1758            1759            1760
             1761            1762            1763            1764            1765            1766            1767            1768            1769            1770
             1771            1772            1773            1774            1775            1776            1777            1778            1779            1780
             1781            1782            1783            1784            1785            1786            1787            1788            1789            1790
             1791            1792            1793            1794            1795            1796            1797            1798            1799            1800
             1801            1802            1803            1804            1805            1806            1807            1808            1809            1810
             1811            1812            1813            1814            1815            1816            1817            1818            1819            1820
             1821            1822            1823            1824            1825            1826            1827            1828            1829            1830
             1831            1832            1833            1834            1835            1836            1837            1838            1839            1840
             1841            1842            1843            1844            1845            1846            1847            1848            1849            1850
             1851            1852            1853            1854            1855            1856            1857            1858            1859            1860
             1861            1862            1863            1864            1865            1866            1867            1868            1869            1870
             1871            1872            1873            1874            1875            1876            1877            1878            1879            1880
             1881            1882            1883            1884            1885            1886            1887            1888            1889            1890
             1891            1892            1893            1894            1895            1896            1897            1898            1899            1900
             1901            1902            1903            1904            1905            1906            1907            1908            1909            1910
             1911            1912            1913            1914            1915            1916            1917            1918            1919            1920
             1921            1922            1923            1924            1925            1926            1927            1928            1929            1930
             1931            1932            1933            1934            1935            1936            1937            1938            1939            1940
             1941            1942            1943            1944            1945            1946            1947            1948            1949            1950
             1951            1952            1953            1954            1955            1956            1957            1958            1959            1960
             1961            1962            1963            1964            1965            1966            1967            1968            1969            1970
             1971            1972            1973            1974            1975            1976            1977            1978            1979            1980
             1981            1982            1983            1984            1985            1986            1987            1988            1989            1990
             1991            1992            1993            1994            1995            1996            1997            1998            1999            2000
             2001            2002            2003            2004            2005            2006            2007            2008            2009            2010
             2011            2012            2013            2014            2015            2016            2017            2018            2019            2020
             2021            2022            2023            2024            2025            2026            2027            2028            2029            2030
             2031            2032            2033            2034            2035            2036            2037            2038            2039            2040
             2041            2042            2043            2044            2045            2046            2047            2048            2049            2050
             2051            2052            2053            2054            2055            2056            2057            2058            2059            2060
             2061            2062            2063            2064            2065            2066            2067            2068            2069            2070
             2071            2072            2073            2074            2075            2076            2077            2078            2079            2080
             2081            2082            2083            2084            2085            2086            2087            2088            2089            2090
             2091            2092            2093            2094            2095            2096            2097            2098            2099            2100
             2101            2102            2103            2104            2105            2106            2107            2108            2109            2110
             2111            2112            2113            2114            2115            2116            2117            2118            2119            2120
             2121            2122            2123            2124            2125            2126            2127            2128            2129            2130
             2131            2132            2133            2134            2135            2136            2137            2138            2139            2140
             2141            2142            2143            2144            2145            2146            2147            2148            2149            2150
             2151            2152            2153            2154            2155            2156            2157            2158            2159            2160
             2161            2162            2163            2164            2165            2166            2167            2168            2169            2170
             2171            2172            2173            2174            2175            2176            2177            2178            2179            2180
             2181            2182            2183            2184            2185            2186            2187            2188            2189            2190
             2191            2192            2193            2194            2195            2196            2197            2198            2199            2200
             2201            2202            2203            2204            2205            2206            2207            2208            2209            2210
             2211            2212            2213            2214            2215            2216            2217            2218            2219            2220
             2221            2222            2223            2224            2225            2226            2227            2228            2229            2230
             2231            2232            2233            2234            2235            2236            2237            2238            2239            2240
             2241            2242            2243            2244            2245            2246            2247            2248            2249            2250
             2251            2252            2253            2254            2255            2256            2257            2258            2259            2260
             2261            2262            2263            2264            2265            2266            2267            2268            2269            2270
             2271            2272            2273            2274            2275            2276            2277            2278            2279            2280
             2281            2282            2283            2284            2285            2286            2287            2288            2289            2290
             2291            2292            2293            2294            2295            2296            2297            2298            2299            2300
             2301            2302            2303            2304            2305            2306            2307            2308            2309            2310
             2311            2312            2313            2314            2315            2316            2317            2318            2319            2320
             2321            2322            2323            2324            2325            2326            2327            2328            2329            2330
             2331            2332            2333            2334            2335            2336            2337            2338            2339            2340
             2341            2342            2343            2344            2345            2346            2347            2348            2349            2350
             2351            2352            2353            2354            2355            2356            2357            2358            2359            2360
             2361            2362            2363            2364            2365            2366            2367            2368            2369            2370
             2371            2372            2373            2374            2375            2376            2377            2378            2379            2380
             2381            2382            2383            2384            2385            2386            2387            2388            2389            2390
             2391            2392            2393            2394            2395            2396            2397            2398            2399            2400
             2401            2402            2403            2404            2405            2406            2407            2408            2409            2410
             2411            2412            2413            2414            2415            2416            2417            2418            2419            2420
             2421            2422            2423            2424            2425            2426            2427            2428            2429            2430
             2431            2432            2433            2434            2435            2436            2437            2438            2439            2440
             2441            2442            2443            2444            2445            2446            2447            2448            2449            2450
             2451            2452            2453            2454            2455            2456            2457            2458            2459            2460
             2461            2462            2463            2464            2465            2466            2467            2468            2469            2470
             2471            2472            2473            2474            2475            2476            2477            2478            2479            2480
             2481            2482            2483            2484            2485            2486            2487            2488            2489            2490
             2491            2492            2493            2494            2495            2496            2497            2498            2499            2500
             2501            2502            2503            2504            2505            2506            2507            2508            2509            2510
             2511            2512            2513            2514            2515            2516            2517            2518            2519            2520
             2521            2522            2523            2524            2525            2526            2527            2528            2529            2530
             2531            2532            2533            2534            2535            2536            2537            2538            2539            2540
             2541            2542            2543            2544            2545            2546            2547            2548            2549            2550
             2551            2552            2553            2554            2555            2556            2557            2558            2559            2560
             2561            2562            2563            2564            2565            2566            2567            2568            2569            2570
             2571            2572            2573            2574            2575            2576            2577            2578            2579            2580
             2581            2582            2583            2584            2585            2586            2587            2588            2589            2590
             2591            2592            2593            2594            2595            2596            2597            2598            2599            2600
             2601            2602            2603            2604            2605            2606            2607            2608            2609            2610
             2611            2612            2613            2614            2615            2616            2617            2618            2619            2620
             2621            2622            2623            2624            2625            2626            2627            2628            2629            2630
             2631            2632            2633            2634            2635            2636            2637            2638            2639            2640
             2641            2642            2643            2644            2645            2646            2647            2648            2649            2650
             2651            2652            2653            2654            2655            2656            2657            2658            2659            2660
             2661            2662            2663            2664            2665            2666            2667            2668            2669            2670
             2671            2672            2673            2674            2675            2676            2677            2678            2679            2680
             2681            2682            2683            2684            2685            2686            2687            2688            2689            2690
             2691            2692            2693            2694            2695            2696            2697            2698            2699            2700
             2701            2702            2703            2704            2705            2706            2707            2708            2709            2710
             2711            2712            2713            2714            2715            2716            2717            2718            2719            2720
             2721            2722            2723            2724            2725            2726            2727            2728            2729            2730
             2731            2732            2733            2734            2735            2736            2737            2738            2739            2740
             2741            2742            2743            2744            2745            2746            2747            2748            2749            2750
             2751            2752            2753            2754            2755            2756            2757            2758            2759            2760
             2761            2762            2763            2764            2765            2766            2767            2768            2769            2770
             2771            2772            2773            2774            2775            2776            2777            2778            2779            2780
             2781            2782            2783            2784            2785            2786            2787            2788            2789            2790
             2791            2792            2793            2794            2795            2796            2797            2798            2799            2800
             2801            2802            2803            2804            2805            2806            2807            2808            2809            2810
             2811            2812            2813            2814            2815            2816            2817            2818            2819            2820
             2821            2822            2823            2824            2825            2826            2827            2828            2829            2830
             2831            2832            2833            2834            2835            2836            2837            2838            2839            2840
             2841            2842            2843            2844            2845            2846            2847            2848            2849            2850
             2851            2852            2853            2854            2855            2856            2857            2858            2859            2860
             2861            2862            2863            2864            2865            2866            2867            2868            2869            2870
             2871            2872            2873            2874            2875            2876            2877            2878            2879            2880
             2881            2882            2883            2884            2885            2886            2887            2888            2889            2890
             2891            2892            2893            2894            2895            2896            2897            2898            2899            2900
             2901            2902            2903            2904            2905            2906            2907            2908            2909            2910
             2911            2912            2913            2914            2915            2916            2917            2918            2919            2920
             2921            2922            2923            2924            2925            2926            2927            2928            2929            2930
             2931            2932            2933            2934            2935            2936            2937            2938            2939            2940
             2941            2942            2943            2944            2945            2946            2947            2948            2949            2950
             2951            2952            2953            2954            2955            2956            2957            2958            2959            2960
             2961            2962            2963            2964            2965            2966            2967            2968            2969            2970
             2971            2972            2973            2974            2975            2976            2977            2978            2979            2980
             2981            2982            2983            2984            2985            2986            2987            2988            2989            2990
             2991            2992            2993            2994            2995            2996            2997            2998            2999            3000
             3001            3002            3003            3004            3005            3006            3007            3008            3009            3010
             3011            3012            3013            3014            3015            3016            3017            3018            3019            3020
             3021            3022            3023            3024            3025            3026            3027            3028            3029            3030
             3031            3032            3033            3034            3035            3036            3037            3038            3039            3040
             3041            3042            3043            3044            3045            3046            3047            3048            3049            3050
             3051            3052            3053            3054            3055            3056            3057            3058            3059            3060
             3061            3062            3063            3064            3065            3066            3067            3068            3069            3070
             3071            3072            3073            3074            3075            3076            3077            3078            3079            3080
             3081            3082            3083            3084            3085            3086            3087            3088            3089            3090
             3091            3092            3093            3094            3095            3096            3097            3098            3099            3100
             3101            3102            3103            3104            3105            3106            3107            3108            3109            3110
             3111            3112            3113            3114            3115            3116            3117            3118            3119            3120
             3121            3122            3123            3124            3125            3126            3127            3128            3129            3130
             3131            3132            3133            3134            3135
 ................................................................................................................................................................
   1      133.790         133.777         133.742         133.669         133.618         133.611         133.495         133.474         133.594         133.683    
          133.759         133.828         133.891         133.951         134.009         134.064         134.119         134.176         134.232         134.282    
          134.331         134.376         134.413         133.701         133.722         133.715         133.682         133.618         133.512         133.433    
          133.533         133.484         133.423         133.482         133.428         133.412         133.559         133.654         133.733         133.805    
          133.874         133.941         134.006         134.069         134.132         134.197         134.256         134.313         134.373         134.441    
          134.548         133.668         133.682         133.689         133.681         133.657         133.614         133.551         133.488         133.462    
          133.519         133.503         133.465         133.512         133.487         133.471         133.568         133.603         133.521         133.569    
          133.652         133.731         133.808         133.884         133.957         134.028         134.096         134.165         134.232         134.298    
          134.365         134.439         134.527         134.620         133.655         133.663         133.670         133.673         133.666         133.649    
          133.622         133.588         133.555         133.521         133.474         133.520         133.498         133.475         133.571         133.607    
          133.525         133.574         133.659         133.745         133.830         133.913         133.991         134.064         134.138         134.208    
          134.279         134.353         134.429         134.512         134.599         134.693         133.645         133.652         133.659         133.664    
          133.666         133.662         133.651         133.635         133.614         133.592         133.569         133.532         133.477         133.525    
          133.505         133.479         133.580         133.618         133.533         133.585         133.677         133.776         133.872         133.958    
          134.035         134.113         134.186         134.259         134.336         134.416         134.500         134.588         134.678         134.769    
          133.635         133.643         133.650         133.657         133.662         133.665         133.664         133.658         133.649         133.638    
          133.624         133.607         133.585         133.546         133.484         133.533         133.519         133.490         133.588         133.635    
          133.525         133.597         133.716         133.836         133.932         134.010         134.089         134.162         134.237         134.317    
          134.399         134.488         134.580         134.672         134.766         134.862         133.621         133.631         133.640         133.649    
          133.656         133.663         133.667         133.669         133.668         133.665         133.659         133.652         133.643         133.630    
          133.608         133.573         133.504         133.537         133.554         133.522         133.628         133.701         133.575         133.685    
          133.815         133.917         133.990         134.064         134.136         134.211         134.293         134.380         134.473         134.572    
          134.670         134.770         134.876         134.984         133.600         133.613         133.626         133.638         133.648         133.657    
          133.665         133.672         133.676         133.679         133.680         133.680         133.679         133.677         133.673         133.667    
          133.657         133.641         133.579         133.687         133.685         133.746         133.807         133.857         133.860         133.894    
          133.922         133.974         134.036         134.103         134.178         134.263         134.356         134.456         134.561         134.667    
          134.777         134.896         135.025         135.166         133.553         133.585         133.605         133.622         133.636         133.648    
          133.659         133.669         133.678         133.685         133.691         133.697         133.701         133.705         133.709         133.714    
          133.720         133.730         133.750         133.796         133.856         133.893         133.860         133.891         133.922         133.933    
          133.918         133.933         133.948         133.965         133.948         133.954         133.994         134.017         133.969         133.999    
          134.058         134.130         134.222         134.325         134.435         134.546         134.659         134.780         134.913         135.065    
          135.267         135.600         135.822         135.991         136.123         136.236         136.338         136.430         136.517         136.597    
          136.675         136.751         136.828         136.907         136.984         137.061         137.139         137.220         137.295         137.368    
          137.436         137.504         137.568         137.636         137.782         137.950         138.054         138.127         138.214         138.359    
          138.507         138.587         138.766         138.953         139.116         139.272         139.529         133.550         133.579         133.601    
          133.619         133.635         133.649         133.663         133.674         133.685         133.695         133.704         133.713         133.721    
          133.730         133.740         133.751         133.764         133.781         133.807         133.846         133.892         133.932         133.959    
          133.965         133.970         133.974         133.978         133.996         134.018         133.974         133.981         134.051         134.084    
          133.997         134.035         134.161         134.288         134.408         134.526         134.645         134.773         134.912         135.065    
          135.249         135.474         135.667         135.833         135.971         136.091         136.198         136.294         136.386         136.474    
          136.558         136.638         136.720         136.802         136.885         136.968         137.054         137.143         137.231         137.320    
          137.412         137.506         137.605         137.727         137.863         138.001         138.127         138.239         138.352         138.490    
          138.631         138.838         138.979         139.179         139.396         139.642         140.083         140.796         133.549         133.576    
          133.599         133.619         133.636         133.652         133.666         133.680         133.693         133.705         133.717         133.729    
          133.741         133.753         133.767         133.782         133.800         133.821         133.848         133.880         133.916         133.950    
          133.978         133.997         134.008         134.006         134.000         134.015         134.001         134.099         134.245         134.377    
          134.499         134.623         134.757         134.896         135.042         135.210         135.389         135.557         135.716         135.854    
          135.977         136.089         136.191         136.285         136.377         136.465         136.548         136.634         136.720         136.808    
          136.897         136.989         137.088         137.189         137.287         137.399         137.504         137.615         137.748         137.884    
          138.013         138.154         138.279         138.402         138.542         138.694         138.922         139.078         139.295         139.519    
          139.787         140.172         140.644         141.103         133.548         133.576         133.599         133.620         133.638         133.655    
          133.671         133.686         133.702         133.716         133.730         133.745         133.759         133.774         133.791         133.809    
          133.830         133.853         133.880         133.910         133.941         133.972         134.000         134.025         134.043         134.039    
          134.035         134.060         134.066         134.025         134.060         134.076         134.104         134.197         134.340         134.466    
          134.598         134.733         134.869         135.008         135.165         135.324         135.477         135.626         135.761         135.884    
          135.999         136.102         136.199         136.293         136.384         136.472         136.561         136.652         136.745         136.840    
          136.940         137.047         137.159         137.261         137.389         137.501         137.624         137.757         137.896         138.027    
          138.175         138.307         138.432         138.573         138.778         138.977         139.133         139.380         139.592         139.847    
          140.184         140.540         140.925         141.322         133.549         133.576         133.600         133.621         133.641         133.659    
          133.676         133.693         133.710         133.727         133.743         133.759         133.776         133.794         133.813         133.833    
          133.855         133.880         133.907         133.936         133.966         133.995         134.024         134.052         134.077         134.099    
          134.109         134.123         134.126         134.139         134.145         134.196         134.148         134.181         134.294         134.429    
          134.566         134.700         134.829         134.968         135.124         135.271         135.415         135.553         135.684         135.807    
          135.922         136.026         136.125         136.220         136.313         136.406         136.499         136.594         136.692         136.792    
          136.899         137.012         137.137         137.241         137.373         137.509         137.631         137.765         137.904         138.032    
          138.176         138.347         138.459         138.638         138.830         139.020         139.179         139.418         139.629         139.872    
          140.159         140.470         140.799         141.143         141.490         133.550         133.578         133.602         133.624         133.645    
          133.664         133.682         133.700         133.718         133.736         133.755         133.773         133.792         133.812         133.833    
          133.855         133.878         133.904         133.931         133.960         133.990         134.019         134.049         134.078         134.106    
          134.134         134.162         134.174         134.190         134.187         134.200         134.235         134.283         134.210         134.263    
          134.372         134.517         134.653         134.780         134.936         135.084         135.225         135.363         135.494         135.621    
          135.741         135.854         135.958         136.057         136.154         136.250         136.346         136.444         136.544         136.645    
          136.751         136.863         136.983         137.113         137.224         137.362         137.510         137.635         137.774         137.903    
          138.036         138.199         138.382         138.490         138.664         138.861         139.048         139.214         139.442         139.648    
          139.874         140.131         140.409         140.701         140.999         141.306         141.617         133.552         133.580         133.605    
          133.628         133.649         133.669         133.688         133.708         133.727         133.746         133.766         133.786         133.807    
          133.828         133.851         133.875         133.899         133.926         133.953         133.982         134.012         134.043         134.073    
          134.104         134.134         134.164         134.192         134.217         134.222         134.225         134.231         134.231         134.289    
          134.345         134.244         134.314         134.444         134.592         134.731         134.898         135.047         135.188         135.319    
          135.445         135.567         135.685         135.794         135.898         135.997         136.095         136.193         136.292         136.394    
          136.498         136.605         136.716         136.833         136.958         137.091         137.213         137.355         137.505         137.639    
          137.776         137.908         138.039         138.215         138.388         138.545         138.708         138.881         139.065         139.250    
          139.450         139.654         139.867         140.101         140.353         140.619         140.889         141.156         141.432         141.704    
          133.554         133.583         133.608         133.631         133.653         133.674         133.695         133.715         133.735         133.756    
          133.776         133.798         133.821         133.844         133.868         133.893         133.919         133.946         133.974         134.004    
          134.034         134.066         134.097         134.129         134.161         134.192         134.220         134.245         134.256         134.240    
          134.263         134.258         134.246         134.347         134.411         134.290         134.372         134.522         134.686         134.848    
          135.012         135.153         135.282         135.405         135.521         135.633         135.741         135.843         135.941         136.040    
          136.140         136.242         136.348         136.457         136.570         136.687         136.808         136.938         137.073         137.205    
          137.351         137.500         137.640         137.777         137.914         138.047         138.235         138.413         138.573         138.737    
          138.914         139.086         139.267         139.451         139.654         139.857         140.072         140.304         140.550         140.803    
          141.058         141.333         141.680         133.557         133.586         133.611         133.635         133.658         133.679         133.701    
          133.722         133.743         133.765         133.787         133.809         133.833         133.858         133.884         133.910         133.937    
          133.965         133.994         134.025         134.056         134.088         134.121         134.155         134.188         134.220         134.251    
          134.277         134.294         134.295         134.258         134.301         134.295         134.283         134.421         134.506         134.377    
          134.485         134.642         134.810         134.975         135.124         135.252         135.371         135.481         135.588         135.692    
          135.790         135.890         135.987         136.089         136.194         136.305         136.419         136.538         136.662         136.789    
          136.923         137.063         137.201         137.349         137.498         137.640         137.780         137.922         138.075         138.254    
          138.427         138.596         138.764         138.936         139.108         139.273         139.454         139.650         139.845         140.046    
          140.261         140.492         140.731         140.984         141.268         141.652         133.559         133.589         133.615         133.639    
          133.662         133.684         133.706         133.729         133.751         133.774         133.797         133.820         133.845         133.872    
          133.898         133.925         133.954         133.983         134.013         134.045         134.077         134.111         134.145         134.180    
          134.216         134.249         134.283         134.313         134.337         134.351         134.352         134.348         134.460         134.341    
          134.439         134.607         134.786         134.948         135.099         135.226         135.339         135.445         135.545         135.643    
          135.738         135.837         135.935         136.038         136.146         136.261         136.382         136.508         136.639         136.773    
          136.911         137.055         137.201         137.350         137.499         137.640         137.792         137.938         138.095         138.267    
          138.448         138.617         138.785         138.956         139.119         139.282         139.457         139.644         139.833         140.024    
          140.225         140.443         140.674         140.924         141.222         141.627         133.562         133.593         133.619         133.643    
          133.666         133.689         133.712         133.735         133.758         133.782         133.806         133.831         133.856         133.883    
          133.912         133.940         133.970         134.000         134.032         134.065         134.099         134.134         134.170         134.207    
          134.243         134.280         134.317         134.353         134.386         134.412         134.421         134.371         134.390         134.419    
          134.387         134.576         134.776         134.931         135.076         135.207         135.314         135.412         135.505         135.596    
          135.688         135.781         135.879         135.982         136.095         136.217         136.346         136.481         136.618         136.759    
          136.903         137.051         137.206         137.356         137.505         137.648         137.803         137.955         138.112         138.284    
          138.469         138.631         138.801         138.970         139.127         139.289         139.460         139.640         139.823         140.005    
          140.196         140.404         140.628         140.873         141.177         141.608         133.566         133.597         133.622         133.646    
          133.669         133.693         133.716         133.740         133.765         133.789         133.814         133.840         133.867         133.894    
          133.924         133.955         133.985         134.017         134.050         134.084         134.120         134.157         134.195         134.233    
          134.271         134.311         134.353         134.397         134.437         134.478         134.509         134.488         134.477         134.543    
          134.553         134.495         134.630         134.565         134.678         134.795         134.937         135.065         135.192         135.292    
          135.381         135.467         135.552         135.636         135.721         135.814         135.919         136.037         136.170         136.310    
          136.454         136.600         136.748         136.899         137.053         137.212         137.366         137.514         137.663         137.815    
          137.970         138.129         138.299         138.480         138.648         138.815         138.981         139.134         139.294         139.468    
          139.642         139.813         139.992         140.174         140.372         140.589         140.830         141.136         141.586         133.569    
          133.603         133.626         133.648         133.672         133.695         133.720         133.745         133.770         133.796         133.822    
          133.849         133.877         133.905         133.935         133.968         134.000         134.033         134.068         134.104         134.141    
          134.179         134.219         134.257         134.299         134.343         134.391         134.439         134.488         134.540         134.594    
          134.659         134.726         134.754         134.768         134.794         134.848         134.957         135.064         135.178         135.270    
          135.349         135.422         135.501         135.578         135.657         135.744         135.844         135.970         136.114         136.274    
          136.431         136.587         136.744         136.903         137.063         137.219         137.378         137.528         137.678         137.829    
          137.984         138.144         138.312         138.485         138.662         138.826         138.990         139.145         139.301         139.477    
          139.641         139.809         139.980         140.159         140.352         140.563         140.801         141.109         141.567         133.617    
          133.628         133.649         133.672         133.697         133.723         133.748         133.775         133.802         133.829         133.857    
          133.886         133.916         133.947         133.980         134.014         134.049         134.085         134.123         134.162         134.202    
          134.241         134.283         134.328         134.376         134.426         134.479         134.534         134.596         134.662         134.733    
          134.793         134.823         134.804         134.838         134.888         134.976         135.067         135.163         135.244         135.312    
          135.378         135.443         135.507         135.571         135.648         135.745         135.880         136.048         136.235         136.413    
          136.580         136.744         136.908         137.072         137.232         137.393         137.542         137.692         137.841         138.000    
          138.161         138.326         138.495         138.671         138.841         139.003         139.153         139.307         139.479         139.645    
          139.812         139.978         140.154         140.341         140.534         140.782         141.092         141.559         133.618         133.644    
          133.670         133.696         133.723         133.750         133.778         133.806         133.835         133.864         133.895         133.926    
          133.958         133.991         134.027         134.064         134.102         134.141         134.182         134.223         134.264         134.309    
          134.357         134.408         134.459         134.515         134.574         134.643         134.711         134.760         134.813         134.773    
          134.830         134.826         134.856         134.843         134.867         134.913         134.991         135.070         135.148         135.219    
          135.282         135.337         135.389         135.441         135.479         135.530         135.551         135.467         135.468         135.594    
          135.644         135.492         135.560         135.755         135.980         136.199         136.399         136.577         136.749         136.918    
          137.083         137.246         137.409         137.559         137.708         137.856         138.017         138.176         138.339         138.511    
          138.685         138.852         139.012         139.162         139.317         139.489         139.653         139.810         139.977         140.152    
          140.338         140.530         140.776         141.091         141.562         133.635         133.665         133.693         133.722         133.751    
          133.780         133.810         133.840         133.870         133.902         133.935         133.969         134.004         134.040         134.078    
          134.118         134.160         134.201         134.244         134.288         134.335         134.386         134.437         134.491         134.548    
          134.611         134.679         134.748         134.790         134.835         134.799         134.833         134.853         134.871         134.858    
          134.872         134.905         134.942         134.894         134.955         135.002         135.071         135.135         135.196         135.247    
          135.288         135.322         135.373         135.409         135.401         135.389         135.383         135.422         135.461         135.426    
          135.456         135.486         135.498         135.482         135.504         135.569         135.719         135.535         135.707         135.928    
          136.179         136.393         136.581         136.759         136.931         137.098         137.263         137.424         137.577         137.727    
          137.878         138.037         138.195         138.356         138.528         138.699         138.861         139.022         139.180         139.341    
          139.501         139.666         139.824         139.987         140.160         140.339         140.519         140.770         141.076         141.599    
          133.657         133.688         133.719         133.750         133.781         133.812         133.843         133.876         133.909         133.943    
          133.979         134.015         134.053         134.092         134.134         134.177         134.221         134.266         134.312         134.361    
          134.412         134.465         134.521         134.580         134.643         134.709         134.777         134.840         134.898         134.931    
          134.973         134.950         134.985         134.998         135.019         135.017         135.042         135.058         135.081         135.065    
          135.077         135.110         135.134         135.096         135.121         135.167         135.186         135.157         135.170         135.209    
          135.223         135.187         135.198         135.240         135.246         135.211         135.220         135.244         135.243         135.246    
          135.285         135.287         135.344         135.303         135.340         135.377         135.383         135.381         135.401         135.431    
          135.446         135.459         135.474         135.468         135.489         135.516         135.564         135.578         135.718         135.641    
          135.740         135.917         136.179         136.399         136.596         136.777         136.952         137.114         137.283         137.444    
          137.597         137.748         137.903         138.062         138.221         138.381         138.548         138.718         138.883         139.042    
          139.203         139.367         139.519         139.684         139.847         139.999         140.165         140.349         140.540         140.780    
          141.141         141.605         133.680         133.713         133.746         133.779         133.812         133.846         133.880         133.915    
          133.951         133.988         134.026         134.066         134.107         134.150         134.195         134.241         134.287         134.334    
          134.385         134.438         134.493         134.549         134.609         134.672         134.737         134.804         134.874         134.942    
          135.005         135.062         135.113         135.164         135.224         135.273         135.321         135.379         135.436         135.499    
          135.521         135.534         135.577         135.597         135.547         135.601         135.605         135.615         135.667         135.744    
          135.671         135.715         135.853         135.964         135.791         135.967         136.189         136.421         136.623         136.806    
          136.978         137.140         137.310         137.471         137.624         137.776         137.930         138.091         138.251         138.419    
          138.584         138.748         138.911         139.068         139.232         139.390         139.550         139.707         139.867         140.022    
          140.184         140.365         140.549         140.787         141.142         141.647         133.705         133.741         133.776         133.811    
          133.847         133.883         133.919         133.957         133.996         134.036         134.078         134.121         134.167         134.213    
          134.260         134.307         134.357         134.409         134.463         134.519         134.577         134.637         134.699         134.765    
          134.834         134.904         134.979         135.049         135.118         135.182         135.245         135.314         135.378         135.440    
          135.508         135.574         135.644         135.704         135.764         135.779         135.810         135.853         135.903         135.830    
          136.006         135.955         136.067         136.244         136.465         136.662         136.847         137.015         137.178         137.346    
          137.508         137.661         137.810         137.967         138.126         138.291         138.462         138.625         138.784         138.945    
          139.097         139.267         139.424         139.575         139.738         139.891         140.051         140.213         140.393         140.584    
          140.802         141.130         141.662         133.731         133.770         133.808         133.845         133.884         133.922         133.962    
          134.003         134.045         134.089         134.135         134.182         134.229         134.278         134.328         134.379         134.432    
          134.487         134.543         134.602         134.662         134.726         134.792         134.864         134.937         135.013         135.089    
          135.164         135.237         135.310         135.388         135.463         135.539         135.616         135.693         135.768         135.839    
          135.872         135.906         135.929         135.974         135.937         135.984         136.024         136.075         136.152         136.344    
          136.533         136.717         136.895         137.067         137.227         137.394         137.553         137.704         137.853         138.007    
          138.167         138.345         138.508         138.665         138.827         138.983         139.141         139.303         139.459         139.609    
          139.768         139.925         140.087         140.249         140.426         140.620         140.839         141.138         141.636         133.760    
          133.801         133.842         133.883         133.924         133.966         134.009         134.053         134.100         134.147         134.196    
          134.245         134.296         134.348         134.401         134.454         134.510         134.567         134.627         134.689         134.753    
          134.822         134.895         134.970         135.049         135.129         135.211         135.293         135.376         135.463         135.548    
          135.634         135.720         135.802         135.879         135.961         136.004         136.052         136.058         136.101         136.110    
          136.169         136.186         136.232         136.295         136.451         136.618         136.787         136.954         137.128         137.288    
          137.454         137.610         137.758         137.907         138.057         138.218         138.393         138.555         138.719         138.882    
          139.028         139.186         139.342         139.494         139.646         139.802         139.964         140.122         140.285         140.463    
          140.657         140.870         141.173         141.632         133.790         133.835         133.879         133.923         133.968         134.013    
          134.060         134.109         134.159         134.209         134.260         134.313         134.366         134.421         134.476         134.532    
          134.590         134.651         134.714         134.781         134.852         134.926         135.004         135.086         135.172         135.260    
          135.350         135.443         135.540         135.634         135.729         135.823         135.911         135.995         136.081         136.180    
          136.265         136.298         136.292         136.331         136.403         136.551         136.709         136.869         137.032         137.193    
          137.367         137.525         137.677         137.823         137.965         138.115         138.271         138.444         138.612         138.782    
          138.932         139.081         139.235         139.385         139.535         139.687         139.835         139.999         140.162         140.324    
          140.501         140.699         140.913         141.204         141.639         133.823         133.871         133.919         133.967         134.016    
          134.065         134.117         134.168         134.220         134.273         134.328         134.383         134.440         134.497         134.555    
          134.615         134.676         134.740         134.811         134.883         134.958         135.039         135.125         135.217         135.313    
          135.413         135.515         135.622         135.729         135.831         135.928         136.015         136.102         136.190         136.276    
          136.321         136.356         136.345         136.370         136.486         136.647         136.802         136.959         137.120         137.282    
          137.451         137.606         137.753         137.898         138.036         138.186         138.337         138.497         138.675         138.848    
          138.990         139.127         139.277         139.430         139.578         139.724         139.872         140.036         140.206         140.372    
          140.549         140.749         140.963         141.226         141.640         133.859         133.911         133.962         134.016         134.069    
          134.121         134.174         134.229         134.284         134.341         134.399         134.458         134.517         134.578         134.639    
          134.702         134.768         134.839         134.915         134.993         135.077         135.169         135.269         135.372         135.484    
          135.599         135.716         135.830         135.940         136.039         136.132         136.222         136.305         136.373         136.392    
          136.399         136.438         136.448         136.573         136.742         136.900         137.056         137.212         137.377         137.542    
          137.688         137.834         137.976         138.111         138.256         138.408         138.566         138.749         138.897         139.030    
          139.171         139.323         139.479         139.621         139.761         139.913         140.081         140.246         140.415         140.592    
          140.785         140.999         141.255         141.644         133.896         133.954         134.013         134.068         134.123         134.179    
          134.235         134.294         134.353         134.413         134.474         134.537         134.600         134.663         134.729         134.797    
          134.870         134.949         135.032         135.121         135.217         135.328         135.443         135.566         135.694         135.825    
          135.950         136.065         136.168         136.262         136.347         136.425         136.497         136.515         136.542         136.571    
          136.617         136.691         136.842         136.997         137.154         137.315         137.473         137.623         137.767         137.910    
          138.056         138.190         138.331         138.472         138.628         138.780         138.923         139.060         139.216         139.322    
          139.381         139.335         139.408         139.471         139.535         139.493         139.559         139.620         139.683         139.643    
          139.709         139.765         139.826         139.789         139.853         139.918         139.985         139.945         140.013         140.080    
          140.141         140.105         140.169         140.242         140.313         140.266         140.348         140.415         140.489         140.441    
          140.524         140.588         140.660         140.611         140.692         140.824         141.030         141.284         141.638         133.940    
          134.003         134.062         134.121         134.181         134.240         134.301         134.362         134.425         134.490         134.555    
          134.621         134.688         134.756         134.829         134.905         134.988         135.075         135.171         135.276         135.392    
          135.524         135.664         135.812         135.956         136.087         136.200         136.301         136.392         136.466         136.536    
          136.603         136.638         136.680         136.666         136.726         136.804         136.950         137.103         137.256         137.417    
          137.563         137.707         137.846         137.990         138.128         138.261         138.392         138.529         138.669         138.769    
          138.830         138.781         138.856         138.914         138.970         138.936         138.994         139.058         139.117         139.082    
          139.143         139.209         139.267         139.232         139.292         139.356         139.429         139.384         139.445         139.563    
          139.720         139.880         140.023         140.184         140.300         140.382         140.329         140.407         140.470         140.550    
          140.500         140.572         140.638         140.723         140.667         140.743         140.824         140.906         140.843         140.933    
          141.071         141.303         141.637         133.986         134.051         134.115         134.179         134.241         134.306         134.370    
          134.435         134.504         134.573         134.643         134.714         134.787         134.863         134.945         135.033         135.127    
          135.231         135.343         135.478         135.633         135.792         135.957         136.097         136.232         136.352         136.442    
          136.517         136.579         136.626         136.645         136.663         136.663         136.710         136.709         136.780         136.768    
          136.818         136.916         137.063         137.207         137.368         137.511         137.654         137.788         137.925         138.064    
          138.193         138.320         138.452         138.535         138.591         138.554         138.623         138.667         138.721         138.693    
          138.749         138.803         138.874         138.832         138.891         139.002         139.153         139.306         139.459         139.620    
          139.777         139.934         140.096         140.258         140.418         140.580         140.745         140.871         140.961         140.895    
          140.976         141.067         141.156         141.082         141.182         141.338         141.643         134.034         134.103         134.171    
          134.238         134.308         134.376         134.443         134.515         134.591         134.666         134.741         134.819         134.902    
          134.990         135.082         135.188         135.305         135.445         135.590         135.762         135.934         136.105         136.256    
          136.369         136.475         136.557         136.627         136.680         136.707         136.681         136.740         136.698         136.735    
          136.857         137.017         137.162         137.314         137.454         137.591         137.727         137.859         137.992         138.130    
          138.253         138.382         138.463         138.515         138.484         138.551         138.582         138.645         138.616         138.666    
          138.760         138.912         139.068         139.216         139.359         139.527         139.686         139.840         140.004         140.162    
          140.325         140.484         140.641         140.788         140.960         141.104         141.207         141.121         141.213         141.336    
          141.469         141.346         141.478         141.709         141.711         134.082         134.157         134.230         134.304         134.377    
          134.451         134.525         134.608         134.688         134.769         134.855         134.946         135.042         135.142         135.254    
          135.378         135.540         135.686         135.869         136.046         136.220         136.366         136.488         136.590         136.673    
          136.735         136.781         136.809         136.767         136.735         136.827         136.788         136.877         136.958         136.925    
          137.009         137.113         137.273         137.404         137.535         137.667         137.800         137.930         138.060         138.183    
          138.307         138.435         138.516         138.583         138.542         138.608         138.688         138.830         138.983         139.130    
          139.278         139.427         139.598         139.753         139.910         140.073         140.238         140.396         140.545         140.694    
          140.842         140.996         141.172         141.384         141.628         134.134         134.215         134.293         134.373         134.454    
          134.533         134.623         134.712         134.800         134.894         134.995         135.097         135.206         135.330         135.473    
          135.639         135.812         136.019         136.198         136.364         136.500         136.620         136.715         136.795         136.856    
          136.901         136.945         136.984         137.025         137.084         137.089         137.142         137.229         137.367         137.489    
          137.615         137.745         137.873         137.997         138.119         138.239         138.368         138.458         138.509         138.482    
          138.546         138.578         138.642         138.614         138.667         138.761         138.905         139.052         139.200         139.358    
          139.513         139.672         139.835         139.994         140.176         140.334         140.472         140.614         140.744         140.878    
          141.021         141.172         141.369         141.611         134.188         134.275         134.362         134.448         134.540         134.637    
          134.736         134.835         134.936         135.046         135.160         135.286         135.432         135.590         135.812         136.025    
          136.209         136.384         136.552         136.685         136.760         136.842         136.920         136.981         137.027         137.084    
          137.137         137.167         137.210         137.221         137.264         137.271         137.313         137.322         137.367         137.461    
          137.577         137.699         137.818         137.938         138.017         138.068         138.043         138.109         138.136         138.189    
          138.174         138.228         138.260         138.313         138.296         138.351         138.390         138.443         138.424         138.478    
          138.515         138.581         138.552         138.608         138.704         138.851         138.987         139.131         139.289         139.459    
          139.614         139.777         139.962         140.173         140.356         140.480         140.599         140.695         140.797         140.903    
          141.008         141.134         141.370         141.607         134.242         134.340         134.438         134.540         134.647         134.758    
          134.869         134.987         135.110         135.245         135.397         135.577         135.826         136.009         136.196         136.381    
          136.554         136.707         136.836         136.955         136.997         137.063         137.117         137.168         137.217         137.264    
          137.339         137.383         137.425         137.430         137.472         137.490         137.532         137.533         137.579         137.658    
          137.773         137.841         137.889         137.870         137.935         137.959         138.009         137.999         138.052         138.078    
          138.145         138.120         138.175         138.258         138.382         138.508         138.662         138.814         138.952         139.083    
          139.237         139.401         139.600         139.765         140.003         140.236         140.386         140.513         140.616         140.699    
          140.774         140.836         140.913         140.962         140.876         134.299         134.413         134.528         134.650         134.779    
          134.908         135.045         135.195         135.356         135.570         135.812         135.998         136.187         136.379         136.564    
          136.735         136.882         137.005         137.108         137.191         137.262         137.282         137.313         137.355         137.400    
          137.465         137.539         137.589         137.635         137.635         137.682         137.689         137.732         137.736         137.784    
          137.802         137.847         137.846         137.896         137.921         137.985         137.968         138.020         138.099         138.223    
          138.349         138.478         138.637         138.785         138.925         139.064         139.197         139.374         139.574         139.805    
          140.095         140.277         140.442         140.586         140.702         140.781         140.824         140.878         140.880         141.157    
          134.361         134.498         134.642         134.795         134.947         135.122         135.305         135.547         135.796         135.989    
          136.184         136.382         136.578         136.764         136.932         137.074         137.192         137.289         137.369         137.430    
          137.478         137.494         137.511         137.550         137.603         137.677         137.755         137.861         137.982         138.101    
          138.217         138.344         138.467         138.620         138.758         138.888         139.032         139.170         139.301         139.528    
          139.910         140.130         140.332         140.516         140.680         140.827         140.938         140.994         140.950         141.743    
          134.428         134.605         134.796         135.009         135.225         135.470         135.766         135.973         136.180         136.388    
          136.594         136.796         136.984         137.148         137.285         137.396         137.488         137.564         137.625         137.672    
          137.708         137.716         137.740         137.768         137.849         137.932         138.028         138.138         138.256         138.371    
          138.498         138.616         138.747         138.872         138.992         139.149         139.314         139.455         139.890         140.142    
          140.379         140.593         140.781         140.944         142.142         142.313         142.441         134.503         134.782         135.057    
          135.360         135.721         135.944         136.165         136.386         136.607         136.824         137.034         137.224         137.384    
          137.513         137.616         137.703         137.776         137.847         137.907         137.950         137.984         138.027         138.106    
          138.210         138.310         138.409         138.497         138.572         138.662         138.754         138.834         138.946         139.043    
          139.183         139.370         139.610         139.775         140.545         141.067         141.504         141.911         142.216         142.489    
          134.665         135.108         135.573         135.898         136.133         136.367         136.604         136.840         137.071         137.292    
          137.484         137.640         137.760         137.851         137.934         137.997         138.103         138.953         138.889         138.769    
          138.729         138.809         139.086         139.119         139.161         139.214         139.235         139.312         139.353         139.338    
          139.422         139.451         139.627         139.883         140.130         140.244         135.165         135.833         136.092         136.330    
          136.576         136.831         137.086         137.337         137.571         137.769         137.925         138.030         138.096         138.191    
          138.189         139.503         136.072         136.301         136.528         136.783         137.062         137.345         137.626         137.884    
          138.099         138.256         138.340         138.324         139.929         136.606         137.069         137.582         138.153         138.576    
          139.103         139.451         139.751         139.963         140.101    
1
  HEAD IN LAYER   2 AT END OF TIME STEP   1 IN STRESS PERIOD    1
  ---------------------------------------------------------------------------

                1               2               3               4               5               6               7               8               9              10
               11              12              13              14              15              16              17              18              19              20
               21              22              23              24              25              26              27              28              29              30
               31              32              33              34              35              36              37              38              39              40
               41              42              43              44              45              46              47              48              49              50
               51              52              53              54              55              56              57              58              59              60
               61              62              63              64              65              66              67              68              69              70
               71              72              73              74              75              76              77              78              79              80
               81              82              83              84              85              86              87              88              89              90
               91              92              93              94              95              96              97              98              99             100
              101             102             103             104             105             106             107             108             109             110
              111             112             113             114             115             116             117             118             119             120
              121             122             123             124             125             126             127             128             129             130
              131             132             133             134             135             136             137             138             139             140
              141             142             143             144             145             146             147             148             149             150
              151             152             153             154             155             156             157             158             159             160
              161             162             163             164             165             166             167             168             169             170
              171             172             173             174             175             176             177             178             179             180
              181             182             183             184             185             186             187             188             189             190
              191             192             193             194             195             196             197             198             199             200
              201             202             203             204             205             206             207             208             209             210
              211             212             213             214             215             216             217             218             219             220
              221             222             223             224             225             226             227             228             229             230
              231             232             233             234             235             236             237             238             239             240
              241             242             243             244             245             246             247             248             249             250
              251             252             253             254             255             256             257             258             259             260
              261             262             263             264             265             266             267             268             269             270
              271             272             273             274             275             276             277             278             279             280
              281             282             283             284             285             286             287             288             289             290
              291             292             293             294             295             296             297             298             299             300
              301             302             303             304             305             306             307             308             309             310
              311             312             313             314             315             316             317             318             319             320
              321             322             323             324             325             326             327             328             329             330
              331             332             333             334             335             336             337             338             339             340
              341             342             343             344             345             346             347             348             349             350
              351             352             353             354             355             356             357             358             359             360
              361             362             363             364             365             366             367             368             369             370
              371             372             373             374             375             376             377             378             379             380
              381             382             383             384             385             386             387             388             389             390
              391             392             393             394             395             396             397             398             399             400
              401             402             403             404             405             406             407             408             409             410
              411             412             413             414             415             416             417             418             419             420
              421             422             423             424             425             426             427             428             429             430
              431             432             433             434             435             436             437             438             439             440
              441             442             443             444             445             446             447             448             449             450
              451             452             453             454             455             456             457             458             459             460
              461             462             463             464             465             466             467             468             469             470
              471             472             473             474             475             476             477             478             479             480
              481             482             483             484             485             486             487             488             489             490
              491             492             493             494             495             496             497             498             499             500
              501             502             503             504             505             506             507             508             509             510
              511             512             513             514             515             516             517             518             519             520
              521             522             523             524             525             526             527             528             529             530
              531             532             533             534             535             536             537             538             539             540
              541             542             543             544             545             546             547             548             549             550
              551             552             553             554             555             556             557             558             559             560
              561             562             563             564             565             566             567             568             569             570
              571             572             573             574             575             576             577             578             579             580
              581             582             583             584             585             586             587             588             589             590
              591             592             593             594             595             596             597             598             599             600
              601             602             603             604             605             606             607             608             609             610
              611             612             613             614             615             616             617             618             619             620
              621             622             623             624             625             626             627             628             629             630
              631             632             633             634             635             636             637             638             639             640
              641             642             643             644             645             646             647             648             649             650
              651             652             653             654             655             656             657             658             659             660
              661             662             663             664             665             666             667             668             669             670
              671             672             673             674             675             676             677             678             679             680
              681             682             683             684             685             686             687             688             689             690
              691             692             693             694             695             696             697             698             699             700
              701             702             703             704             705             706             707             708             709             710
              711             712             713             714             715             716             717             718             719             720
              721             722             723             724             725             726             727             728             729             730
              731             732             733             734             735             736             737             738             739             740
              741             742             743             744             745             746             747             748             749             750
              751             752             753             754             755             756             757             758             759             760
              761             762             763             764             765             766             767             768             769             770
              771             772             773             774             775             776             777             778             779             780
              781             782             783             784             785             786             787             788             789             790
              791             792             793             794             795             796             797             798             799             800
              801             802             803             804             805             806             807             808             809             810
              811             812             813             814             815             816             817             818             819             820
              821             822             823             824             825             826             827             828             829             830
              831             832             833             834             835             836             837             838             839             840
              841             842             843             844             845             846             847             848             849             850
              851             852             853             854             855             856             857             858             859             860
              861             862             863             864             865             866             867             868             869             870
              871             872             873             874             875             876             877             878             879             880
              881             882             883             884             885             886             887             888             889             890
              891             892             893             894             895             896             897             898             899             900
              901             902             903             904             905             906             907             908             909             910
              911             912             913             914             915             916             917             918             919             920
              921             922             923             924             925             926             927             928             929             930
              931             932             933             934             935             936             937             938             939             940
              941             942             943             944             945             946             947             948             949             950
              951             952             953             954             955             956             957             958             959             960
              961             962             963             964             965             966             967             968             969             970
              971             972             973             974             975             976             977             978             979             980
              981             982             983             984             985             986             987             988             989             990
              991             992             993             994             995             996             997             998             999            1000
             1001            1002            1003            1004            1005            1006            1007            1008            1009            1010
             1011            1012            1013            1014            1015            1016            1017            1018            1019            1020
             1021            1022            1023            1024            1025            1026            1027            1028            1029            1030
             1031            1032            1033            1034            1035            1036            1037            1038            1039            1040
             1041            1042            1043            1044            1045            1046            1047            1048            1049            1050
             1051            1052            1053            1054            1055            1056            1057            1058            1059            1060
             1061            1062            1063            1064            1065            1066            1067            1068            1069            1070
             1071            1072            1073            1074            1075            1076            1077            1078            1079            1080
             1081            1082            1083            1084            1085            1086            1087            1088            1089            1090
             1091            1092            1093            1094            1095            1096            1097            1098            1099            1100
             1101            1102            1103            1104            1105            1106            1107            1108            1109            1110
             1111            1112            1113            1114            1115            1116            1117            1118            1119            1120
             1121            1122            1123            1124            1125            1126            1127            1128            1129            1130
             1131            1132            1133            1134            1135            1136            1137            1138            1139            1140
             1141            1142            1143            1144            1145            1146            1147            1148            1149            1150
             1151            1152            1153            1154            1155            1156            1157            1158            1159            1160
             1161            1162            1163            1164            1165            1166            1167            1168            1169            1170
             1171            1172            1173            1174            1175            1176            1177            1178            1179            1180
             1181            1182            1183            1184            1185            1186            1187            1188            1189            1190
             1191            1192            1193            1194            1195            1196            1197            1198            1199            1200
             1201            1202            1203            1204            1205            1206            1207            1208            1209            1210
             1211            1212            1213            1214            1215            1216            1217            1218            1219            1220
             1221            1222            1223            1224            1225            1226            1227            1228            1229            1230
             1231            1232            1233            1234            1235            1236            1237            1238            1239            1240
             1241            1242            1243            1244            1245            1246            1247            1248            1249            1250
             1251            1252            1253            1254            1255            1256            1257            1258            1259            1260
             1261            1262            1263            1264            1265            1266            1267            1268            1269            1270
             1271            1272            1273            1274            1275            1276            1277            1278            1279            1280
             1281            1282            1283            1284            1285            1286            1287            1288            1289            1290
             1291            1292            1293            1294            1295            1296            1297            1298            1299            1300
             1301            1302            1303            1304            1305            1306            1307            1308            1309            1310
             1311            1312            1313            1314            1315            1316            1317            1318            1319            1320
             1321            1322            1323            1324            1325            1326            1327            1328            1329            1330
             1331            1332            1333            1334            1335            1336            1337            1338            1339            1340
             1341            1342            1343            1344            1345            1346            1347            1348            1349            1350
             1351            1352            1353            1354            1355            1356            1357            1358            1359            1360
             1361            1362            1363            1364            1365            1366            1367            1368            1369            1370
             1371            1372            1373            1374            1375            1376            1377            1378            1379            1380
             1381            1382            1383            1384            1385            1386            1387            1388            1389            1390
             1391            1392            1393            1394            1395            1396            1397            1398            1399            1400
             1401            1402            1403            1404            1405            1406            1407            1408            1409            1410
             1411            1412            1413            1414            1415            1416            1417            1418            1419            1420
             1421            1422            1423            1424            1425            1426            1427            1428            1429            1430
             1431            1432            1433            1434            1435            1436            1437            1438            1439            1440
             1441            1442            1443            1444            1445            1446            1447            1448            1449            1450
             1451            1452            1453            1454            1455            1456            1457            1458            1459            1460
             1461            1462            1463            1464            1465            1466            1467            1468            1469            1470
             1471            1472            1473            1474            1475            1476            1477            1478            1479            1480
             1481            1482            1483            1484            1485            1486            1487            1488            1489            1490
             1491            1492            1493            1494            1495            1496            1497            1498            1499            1500
             1501            1502            1503            1504            1505            1506            1507            1508            1509            1510
             1511            1512            1513            1514            1515            1516            1517            1518            1519            1520
             1521            1522            1523            1524            1525            1526            1527            1528            1529            1530
             1531            1532            1533            1534            1535            1536            1537            1538            1539            1540
             1541            1542            1543            1544            1545            1546            1547            1548            1549            1550
             1551            1552            1553            1554            1555            1556            1557            1558            1559            1560
             1561            1562            1563            1564            1565            1566            1567            1568            1569            1570
             1571            1572            1573            1574            1575            1576            1577            1578            1579            1580
             1581            1582            1583            1584            1585            1586            1587            1588            1589            1590
             1591            1592            1593            1594            1595            1596            1597            1598            1599            1600
             1601            1602            1603            1604            1605            1606            1607            1608            1609            1610
             1611            1612            1613            1614            1615            1616            1617            1618            1619            1620
             1621            1622            1623            1624            1625            1626            1627            1628            1629            1630
             1631            1632            1633            1634            1635            1636            1637            1638            1639            1640
             1641            1642            1643            1644            1645            1646            1647            1648            1649            1650
             1651            1652            1653            1654            1655            1656            1657            1658            1659            1660
             1661            1662            1663            1664            1665            1666            1667            1668            1669            1670
             1671            1672            1673            1674            1675            1676            1677            1678            1679            1680
             1681            1682            1683            1684            1685            1686            1687            1688            1689            1690
             1691            1692            1693            1694            1695            1696            1697            1698            1699            1700
             1701            1702            1703            1704            1705            1706            1707            1708            1709            1710
             1711            1712            1713            1714            1715            1716            1717            1718            1719            1720
             1721            1722            1723            1724            1725            1726            1727            1728            1729            1730
             1731            1732            1733            1734            1735            1736            1737            1738            1739            1740
             1741            1742            1743            1744            1745            1746            1747            1748            1749            1750
             1751            1752            1753            1754            1755            1756            1757            1758            1759            1760
             1761            1762            1763            1764            1765            1766            1767            1768            1769            1770
             1771            1772            1773            1774            1775            1776            1777            1778            1779            1780
             1781            1782            1783            1784            1785            1786            1787            1788            1789            1790
             1791            1792            1793            1794            1795            1796            1797            1798            1799            1800
             1801            1802            1803            1804            1805            1806            1807            1808            1809            1810
             1811            1812            1813            1814            1815            1816            1817            1818            1819            1820
             1821            1822            1823            1824            1825            1826            1827            1828            1829            1830
             1831            1832            1833            1834            1835            1836            1837            1838            1839            1840
             1841            1842            1843            1844            1845            1846            1847            1848            1849            1850
             1851            1852            1853            1854            1855            1856            1857            1858            1859            1860
             1861            1862            1863            1864            1865            1866            1867            1868            1869            1870
             1871            1872            1873            1874            1875            1876            1877            1878            1879            1880
             1881            1882            1883            1884            1885            1886            1887            1888            1889            1890
             1891            1892            1893            1894            1895            1896            1897            1898            1899            1900
             1901            1902            1903            1904            1905            1906            1907            1908            1909            1910
             1911            1912            1913            1914            1915            1916            1917            1918            1919            1920
             1921            1922            1923            1924            1925            1926            1927            1928            1929            1930
             1931            1932            1933            1934            1935            1936            1937            1938            1939            1940
             1941            1942            1943            1944            1945            1946            1947            1948            1949            1950
             1951            1952            1953            1954            1955            1956            1957            1958            1959            1960
             1961            1962            1963            1964            1965            1966            1967            1968            1969            1970
             1971            1972            1973            1974            1975            1976            1977            1978            1979            1980
             1981            1982            1983            1984            1985            1986            1987            1988            1989            1990
             1991            1992            1993            1994            1995            1996            1997            1998            1999            2000
             2001            2002            2003            2004            2005            2006            2007            2008            2009            2010
             2011            2012            2013            2014            2015            2016            2017            2018            2019            2020
             2021            2022            2023            2024            2025            2026            2027            2028            2029            2030
             2031            2032            2033            2034            2035            2036            2037            2038            2039            2040
             2041            2042            2043            2044            2045            2046            2047            2048            2049            2050
             2051            2052            2053            2054            2055            2056            2057            2058            2059            2060
             2061            2062            2063            2064            2065            2066            2067            2068            2069            2070
             2071            2072            2073            2074            2075            2076            2077            2078            2079            2080
             2081            2082            2083            2084            2085            2086            2087            2088            2089            2090
             2091            2092            2093            2094            2095            2096            2097            2098            2099            2100
             2101            2102            2103            2104            2105            2106            2107            2108            2109            2110
             2111            2112            2113            2114            2115            2116            2117            2118            2119            2120
             2121            2122            2123            2124            2125            2126            2127            2128            2129            2130
             2131            2132            2133            2134            2135            2136            2137            2138            2139            2140
             2141            2142            2143            2144            2145            2146            2147            2148            2149            2150
             2151            2152            2153            2154            2155            2156            2157            2158            2159            2160
             2161            2162            2163            2164            2165            2166            2167            2168            2169            2170
             2171            2172            2173            2174            2175            2176            2177            2178            2179            2180
             2181            2182            2183            2184            2185            2186            2187            2188            2189            2190
             2191            2192            2193            2194            2195            2196            2197            2198            2199            2200
             2201            2202            2203            2204            2205            2206            2207            2208            2209            2210
             2211            2212            2213            2214            2215            2216            2217            2218            2219            2220
             2221            2222            2223            2224            2225            2226            2227            2228            2229            2230
             2231            2232            2233            2234            2235            2236            2237            2238            2239            2240
             2241            2242            2243            2244            2245            2246            2247            2248            2249            2250
             2251            2252            2253            2254            2255            2256            2257            2258            2259            2260
             2261            2262            2263            2264            2265            2266            2267            2268            2269            2270
             2271            2272            2273            2274            2275            2276            2277            2278            2279            2280
             2281            2282            2283            2284            2285            2286            2287            2288            2289            2290
             2291            2292            2293            2294            2295            2296            2297            2298            2299            2300
             2301            2302            2303            2304            2305            2306            2307            2308            2309            2310
             2311            2312            2313            2314            2315            2316            2317            2318            2319            2320
             2321            2322            2323            2324            2325            2326            2327            2328            2329            2330
             2331            2332            2333            2334            2335            2336            2337            2338            2339            2340
             2341            2342            2343            2344            2345            2346            2347            2348            2349            2350
             2351            2352            2353            2354            2355            2356            2357            2358            2359            2360
             2361            2362            2363            2364            2365            2366            2367            2368            2369            2370
             2371            2372            2373            2374            2375            2376            2377            2378            2379            2380
             2381            2382            2383            2384            2385            2386            2387            2388            2389            2390
             2391            2392            2393            2394            2395            2396            2397            2398            2399            2400
             2401            2402            2403            2404            2405            2406            2407            2408            2409            2410
             2411            2412            2413            2414            2415            2416            2417            2418            2419            2420
             2421            2422            2423            2424            2425            2426            2427            2428            2429            2430
             2431            2432            2433            2434            2435            2436            2437            2438            2439            2440
             2441            2442            2443            2444            2445            2446            2447            2448            2449            2450
             2451            2452            2453            2454            2455            2456            2457            2458            2459            2460
             2461            2462            2463            2464            2465            2466            2467            2468            2469            2470
             2471            2472            2473            2474            2475            2476            2477            2478            2479            2480
             2481            2482            2483            2484            2485            2486            2487            2488            2489            2490
             2491            2492            2493            2494            2495            2496            2497            2498            2499            2500
             2501            2502            2503            2504            2505            2506            2507            2508            2509            2510
             2511            2512            2513            2514            2515            2516            2517            2518            2519            2520
             2521            2522            2523            2524            2525            2526            2527            2528            2529            2530
             2531            2532            2533            2534            2535            2536            2537            2538            2539            2540
             2541            2542            2543            2544            2545            2546            2547            2548            2549            2550
             2551            2552            2553            2554            2555            2556            2557            2558            2559            2560
             2561            2562            2563            2564            2565            2566            2567            2568            2569            2570
             2571            2572            2573            2574            2575            2576            2577            2578            2579            2580
             2581            2582            2583            2584            2585            2586            2587            2588            2589            2590
             2591            2592            2593            2594            2595            2596            2597            2598            2599            2600
             2601            2602            2603            2604            2605            2606            2607            2608            2609            2610
             2611            2612            2613            2614            2615            2616            2617            2618            2619            2620
             2621            2622            2623            2624            2625            2626            2627            2628            2629            2630
             2631            2632            2633            2634            2635            2636            2637            2638            2639            2640
             2641            2642            2643            2644            2645            2646            2647            2648            2649            2650
             2651            2652            2653            2654            2655            2656            2657            2658            2659            2660
             2661            2662            2663            2664            2665            2666            2667            2668            2669            2670
             2671            2672            2673            2674            2675            2676            2677            2678            2679            2680
             2681            2682            2683            2684            2685            2686            2687            2688            2689            2690
             2691            2692            2693            2694            2695            2696            2697            2698            2699            2700
             2701            2702            2703            2704            2705            2706            2707            2708            2709            2710
             2711            2712            2713            2714            2715            2716            2717            2718            2719            2720
             2721            2722            2723            2724            2725            2726            2727            2728            2729            2730
             2731            2732            2733            2734            2735            2736            2737            2738            2739            2740
             2741            2742            2743            2744            2745            2746            2747            2748            2749            2750
             2751            2752            2753            2754            2755            2756            2757            2758            2759            2760
             2761            2762            2763            2764            2765            2766            2767            2768            2769            2770
             2771            2772            2773            2774            2775            2776            2777            2778            2779            2780
             2781            2782            2783            2784            2785            2786            2787            2788            2789            2790
             2791            2792            2793            2794            2795            2796            2797            2798            2799            2800
             2801            2802            2803            2804            2805            2806            2807            2808            2809            2810
             2811            2812            2813            2814            2815            2816            2817            2818            2819            2820
             2821            2822            2823            2824            2825            2826            2827            2828            2829            2830
             2831            2832            2833            2834            2835            2836            2837            2838            2839            2840
             2841            2842            2843            2844            2845            2846            2847            2848            2849            2850
             2851            2852            2853            2854            2855            2856            2857            2858            2859            2860
             2861            2862            2863            2864            2865            2866            2867            2868            2869            2870
             2871            2872            2873            2874            2875            2876            2877            2878            2879            2880
             2881            2882            2883            2884            2885            2886            2887            2888            2889            2890
             2891            2892            2893            2894            2895            2896            2897            2898            2899            2900
             2901            2902            2903            2904            2905            2906            2907            2908            2909            2910
             2911            2912            2913            2914            2915            2916            2917            2918            2919            2920
             2921            2922            2923            2924            2925            2926            2927            2928            2929            2930
             2931            2932            2933            2934            2935            2936            2937            2938            2939            2940
             2941            2942            2943            2944            2945            2946            2947            2948            2949            2950
             2951            2952            2953            2954            2955            2956            2957            2958            2959            2960
             2961            2962            2963            2964            2965            2966            2967            2968            2969            2970
             2971            2972            2973            2974            2975            2976            2977            2978            2979            2980
             2981            2982            2983            2984            2985            2986            2987            2988            2989            2990
             2991            2992            2993            2994            2995            2996            2997            2998            2999            3000
             3001            3002            3003            3004            3005            3006            3007            3008            3009            3010
             3011            3012            3013            3014            3015            3016            3017            3018            3019            3020
             3021            3022            3023            3024            3025            3026            3027            3028            3029            3030
             3031            3032            3033            3034            3035            3036            3037            3038            3039            3040
             3041            3042            3043            3044            3045            3046            3047            3048            3049            3050
             3051            3052            3053            3054            3055            3056            3057            3058            3059            3060
             3061            3062            3063            3064            3065            3066            3067            3068            3069            3070
             3071            3072            3073            3074            3075            3076            3077            3078            3079            3080
             3081            3082            3083            3084            3085            3086            3087            3088            3089            3090
             3091            3092            3093            3094            3095            3096            3097            3098            3099            3100
             3101            3102            3103            3104            3105            3106            3107            3108            3109            3110
             3111            3112            3113            3114            3115            3116            3117            3118            3119            3120
             3121            3122            3123            3124            3125            3126            3127            3128            3129            3130
             3131            3132            3133            3134            3135
 ................................................................................................................................................................
   1      133.708         133.699         133.676         133.641         133.619         133.611         133.612         133.603         133.610         133.647    
          133.700         133.760         133.823         133.887         133.951         134.013         134.075         134.135         134.193         134.250    
          134.303         134.350         134.384         133.685         133.691         133.683         133.663         133.631         133.606         133.594    
          133.604         133.593         133.588         133.593         133.584         133.586         133.614         133.665         133.724         133.788    
          133.854         133.920         133.987         134.052         134.116         134.178         134.239         134.297         134.353         134.406    
          134.459         133.670         133.676         133.677         133.670         133.654         133.629         133.602         133.586         133.584    
          133.590         133.587         133.591         133.602         133.587         133.594         133.625         133.644         133.610         133.631    
          133.679         133.742         133.810         133.881         133.952         134.022         134.090         134.157         134.223         134.287    
          134.351         134.414         134.476         134.528         133.660         133.665         133.668         133.669         133.663         133.651    
          133.634         133.614         133.599         133.592         133.600         133.616         133.597         133.606         133.638         133.658    
          133.623         133.645         133.696         133.765         133.839         133.916         133.991         134.064         134.135         134.205    
          134.274         134.343         134.413         134.482         134.546         134.600         133.651         133.656         133.661         133.664    
          133.665         133.662         133.654         133.642         133.629         133.617         133.608         133.604         133.614         133.631    
          133.612         133.622         133.656         133.679         133.642         133.668         133.723         133.801         133.883         133.963    
          134.039         134.113         134.185         134.258         134.332         134.407         134.483         134.556         134.625         134.684    
          133.641         133.647         133.653         133.659         133.663         133.665         133.664         133.661         133.654         133.646    
          133.638         133.631         133.625         133.625         133.636         133.656         133.639         133.652         133.686         133.713    
          133.675         133.706         133.769         133.857         133.940         134.017         134.091         134.165         134.239         134.317    
          134.397         134.479         134.562         134.642         134.718         134.787         133.628         133.636         133.644         133.651    
          133.658         133.664         133.668         133.670         133.670         133.668         133.664         133.661         133.657         133.655    
          133.654         133.661         133.677         133.702         133.686         133.705         133.741         133.776         133.739         133.779    
          133.845         133.927         134.000         134.071         134.142         134.218         134.298         134.383         134.471         134.562    
          134.654         134.745         134.834         134.919         133.613         133.622         133.632         133.641         133.650         133.659    
          133.666         133.672         133.677         133.680         133.682         133.684         133.684         133.686         133.688         133.693    
          133.703         133.725         133.753         133.789         133.772         133.803         133.835         133.868         133.845         133.878    
          133.926         133.988         134.051         134.118         134.192         134.274         134.364         134.459         134.558         134.660    
          134.765         134.874         134.987         135.102         133.595         133.606         133.617         133.629         133.640         133.651    
          133.661         133.670         133.679         133.686         133.692         133.698         133.703         133.709         133.715         133.722    
          133.733         133.749         133.776         133.820         133.859         133.888         133.870         133.895         133.920         133.942    
          133.924         133.945         133.972         133.993         133.971         133.991         134.024         134.048         134.017         134.044    
          134.092         134.162         134.246         134.341         134.443         134.549         134.659         134.776         134.901         135.039    
          135.199         135.411         135.591         135.744         135.879         136.001         136.114         136.218         136.316         136.410    
          136.503         136.594         136.683         136.772         136.862         136.952         137.043         137.136         137.229         137.324    
          137.421         137.521         137.624         137.734         137.855         137.980         138.098         138.212         138.332         138.465    
          138.606         138.751         138.912         139.081         139.265         139.474         139.670         133.593         133.602         133.614    
          133.627         133.640         133.652         133.664         133.675         133.686         133.696         133.705         133.714         133.723    
          133.732         133.743         133.755         133.770         133.791         133.818         133.856         133.899         133.943         133.984    
          134.015         134.037         134.016         134.034         134.064         134.087         134.058         134.078         134.122         134.152    
          134.108         134.143         134.213         134.314         134.421         134.533         134.650         134.775         134.909         135.056    
          135.218         135.394         135.560         135.709         135.842         135.964         136.076         136.181         136.281         136.376    
          136.469         136.560         136.651         136.741         136.832         136.924         137.018         137.114         137.211         137.312    
          137.415         137.521         137.631         137.748         137.870         137.995         138.117         138.239         138.366         138.503    
          138.651         138.812         138.978         139.158         139.372         139.639         139.952         140.331         133.592         133.601    
          133.613         133.627         133.641         133.655         133.668         133.681         133.694         133.706         133.718         133.730    
          133.742         133.754         133.768         133.784         133.803         133.826         133.853         133.886         133.923         133.960    
          133.996         134.031         134.068         134.103         134.132         134.103         134.130         134.187         134.287         134.397    
          134.512         134.633         134.762         134.900         135.048         135.204         135.362         135.518         135.660         135.791    
          135.911         136.023         136.129         136.230         136.326         136.420         136.513         136.606         136.698         136.792    
          136.887         136.985         137.086         137.189         137.296         137.407         137.520         137.637         137.759         137.884    
          138.011         138.138         138.267         138.401         138.544         138.700         138.870         139.044         139.235         139.467    
          139.759         140.078         140.412         140.739         133.592         133.601         133.613         133.628         133.643         133.658    
          133.673         133.688         133.702         133.716         133.730         133.745         133.760         133.775         133.792         133.811    
          133.832         133.855         133.883         133.913         133.946         133.980         134.014         134.047         134.082         134.109    
          134.132         134.117         134.137         134.164         134.194         134.165         134.198         134.264         134.372         134.487    
          134.609         134.739         134.877         135.024         135.175         135.324         135.471         135.608         135.735         135.854    
          135.965         136.071         136.173         136.271         136.366         136.461         136.557         136.652         136.749         136.848    
          136.951         137.057         137.166         137.279         137.399         137.519         137.642         137.767         137.896         138.026    
          138.158         138.293         138.432         138.582         138.746         138.919         139.099         139.295         139.532         139.822    
          140.116         140.431         140.762         141.024         133.593         133.601         133.615         133.630         133.646         133.662    
          133.678         133.695         133.711         133.727         133.743         133.760         133.777         133.795         133.814         133.834    
          133.857         133.882         133.909         133.939         133.970         134.002         134.034         134.067         134.102         134.141    
          134.174         134.202         134.181         134.205         134.240         134.274         134.238         134.274         134.347         134.458    
          134.579         134.708         134.845         134.991         135.139         135.283         135.424         135.557         135.681         135.798    
          135.908         136.013         136.115         136.215         136.312         136.410         136.507         136.606         136.707         136.811    
          136.918         137.030         137.145         137.264         137.390         137.517         137.645         137.774         137.905         138.038    
          138.175         138.318         138.462         138.618         138.784         138.960         139.142         139.337         139.572         139.844    
          140.123         140.417         140.718         140.995         141.204         133.594         133.603         133.617         133.633         133.650    
          133.667         133.684         133.702         133.719         133.737         133.755         133.774         133.793         133.813         133.834    
          133.856         133.880         133.905         133.933         133.962         133.993         134.025         134.057         134.090         134.124    
          134.161         134.205         134.242         134.274         134.247         134.273         134.315         134.351         134.308         134.347    
          134.425         134.542         134.669         134.806         134.953         135.100         135.241         135.379         135.508         135.629    
          135.744         135.852         135.957         136.060         136.160         136.260         136.359         136.460         136.563         136.668    
          136.776         136.889         137.005         137.126         137.251         137.383         137.516         137.647         137.779         137.913    
          138.049         138.192         138.340         138.489         138.648         138.815         138.990         139.174         139.369         139.600    
          139.854         140.110         140.378         140.654         140.925         141.160         141.338         133.596         133.605         133.619    
          133.636         133.654         133.672         133.691         133.709         133.728         133.747         133.767         133.787         133.808    
          133.830         133.852         133.876         133.901         133.927         133.955         133.985         134.016         134.047         134.080    
          134.113         134.147         134.184         134.223         134.268         134.307         134.340         134.309         134.335         134.383    
          134.421         134.370         134.413         134.500         134.626         134.764         134.914         135.061         135.201         135.336    
          135.462         135.581         135.693         135.800         135.904         136.007         136.108         136.209         136.311         136.415    
          136.522         136.632         136.745         136.863         136.985         137.110         137.241         137.377         137.515         137.649    
          137.784         137.920         138.059         138.207         138.360         138.515         138.675         138.839         139.010         139.196    
          139.401         139.627         139.857         140.091         140.335         140.587         140.840         141.080         141.290         141.437    
          133.598         133.608         133.622         133.640         133.658         133.677         133.697         133.717         133.737         133.757    
          133.779         133.800         133.822         133.845         133.869         133.894         133.920         133.947         133.976         134.007    
          134.038         134.070         134.103         134.137         134.171         134.207         134.245         134.284         134.327         134.366    
          134.402         134.367         134.395         134.452         134.495         134.437         134.487         134.584         134.725         134.874    
          135.024         135.164         135.296         135.420         135.537         135.647         135.752         135.854         135.956         136.058    
          136.160         136.265         136.373         136.484         136.599         136.718         136.841         136.968         137.098         137.234    
          137.374         137.514         137.652         137.788         137.927         138.070         138.222         138.378         138.537         138.699    
          138.862         139.029         139.215         139.429         139.648         139.854         140.069         140.295         140.528         140.766    
          141.001         141.221         141.390         133.601         133.611         133.626         133.644         133.663         133.683         133.703    
          133.724         133.745         133.767         133.789         133.812         133.836         133.860         133.885         133.911         133.938    
          133.967         133.996         134.027         134.060         134.093         134.127         134.162         134.197         134.233         134.270    
          134.308         134.347         134.388         134.432         134.475         134.436         134.470         134.535         134.588         134.523    
          134.584         134.693         134.842         134.991         135.132         135.261         135.381         135.495         135.603         135.706    
          135.806         135.907         136.009         136.113         136.221         136.333         136.449         136.570         136.695         136.823    
          136.955         137.090         137.229         137.372         137.515         137.655         137.794         137.936         138.083         138.237    
          138.396         138.557         138.720         138.884         139.048         139.238         139.450         139.656         139.848         140.049    
          140.259         140.479         140.705         140.934         141.156         141.334         133.604         133.614         133.630         133.648    
          133.667         133.688         133.709         133.731         133.753         133.776         133.800         133.823         133.848         133.873    
          133.900         133.927         133.955         133.985         134.016         134.048         134.081         134.116         134.151         134.187    
          134.224         134.262         134.300         134.339         134.377         134.417         134.466         134.523         134.579         134.527    
          134.580         134.677         134.821         134.967         135.105         135.231         135.347         135.457         135.561         135.662    
          135.760         135.859         135.961         136.067         136.178         136.294         136.416         136.543         136.674         136.808    
          136.946         137.086         137.229         137.374         137.518         137.660         137.802         137.947         138.096         138.252    
          138.413         138.577         138.740         138.904         139.074         139.263         139.464         139.657         139.841         140.031    
          140.230         140.438         140.654         140.876         141.096         141.274         133.607         133.618         133.633         133.652    
          133.672         133.693         133.715         133.738         133.761         133.784         133.809         133.834         133.860         133.886    
          133.914         133.942         133.972         134.003         134.035         134.069         134.103         134.139         134.176         134.214    
          134.252         134.292         134.333         134.375         134.417         134.460         134.505         134.542         134.586         134.559    
          134.599         134.679         134.816         134.953         135.085         135.206         135.317         135.421         135.520         135.618    
          135.714         135.811         135.911         136.018         136.134         136.256         136.385         136.518         136.656         136.797    
          136.941         137.087         137.233         137.379         137.524         137.668         137.813         137.959         138.110         138.268    
          138.430         138.596         138.762         138.929         139.102         139.286         139.474         139.656         139.834         140.016    
          140.206         140.404         140.611         140.827         141.042         141.215         133.611         133.622         133.638         133.656    
          133.676         133.698         133.720         133.743         133.767         133.792         133.818         133.844         133.870         133.898    
          133.927         133.956         133.987         134.020         134.053         134.088         134.124         134.162         134.200         134.240    
          134.281         134.324         134.368         134.414         134.461         134.508         134.559         134.590         134.624         134.617    
          134.649         134.675         134.725         134.696         134.747         134.829         134.953         135.072         135.186         135.290    
          135.388         135.481         135.573         135.665         135.759         135.858         135.967         136.086         136.216         136.353    
          136.496         136.641         136.789         136.939         137.090         137.240         137.389         137.534         137.678         137.824    
          137.973         138.126         138.285         138.449         138.615         138.782         138.951         139.126         139.308         139.485    
          139.657         139.830         140.005         140.186         140.376         140.577         140.785         140.994         141.164         133.614    
          133.627         133.643         133.660         133.680         133.702         133.725         133.749         133.774         133.799         133.825    
          133.853         133.880         133.909         133.939         133.970         134.002         134.036         134.071         134.108         134.146    
          134.184         134.225         134.266         134.310         134.356         134.404         134.453         134.504         134.557         134.614    
          134.678         134.729         134.774         134.750         134.794         134.858         134.963         135.068         135.171         135.267    
          135.357         135.442         135.527         135.613         135.703         135.800         135.909         136.034         136.173         136.322    
          136.475         136.630         136.785         136.941         137.097         137.252         137.402         137.547         137.692         137.838    
          137.989         138.143         138.303         138.468         138.635         138.802         138.974         139.149         139.325         139.496    
          139.661         139.829         139.998         140.173         140.356         140.549         140.752         140.957         141.126         133.636    
          133.648         133.665         133.684         133.706         133.729         133.753         133.779         133.805         133.832         133.860    
          133.889         133.919         133.950         133.983         134.017         134.052         134.089         134.127         134.166         134.207    
          134.249         134.293         134.339         134.387         134.438         134.490         134.544         134.602         134.662         134.728    
          134.776         134.816         134.792         134.831         134.886         134.976         135.068         135.160         135.246         135.327    
          135.405         135.481         135.559         135.642         135.736         135.846         135.977         136.129         136.292         136.458    
          136.623         136.786         136.947         137.108         137.265         137.416         137.562         137.707         137.855         138.006    
          138.162         138.323         138.488         138.655         138.822         138.994         139.169         139.340         139.506         139.669    
          139.831         139.996         140.165         140.343         140.531         140.731         140.932         141.098         133.655         133.670    
          133.689         133.709         133.732         133.757         133.783         133.810         133.838         133.868         133.898         133.929    
          133.962         133.995         134.031         134.068         134.106         134.146         134.187         134.229         134.273         134.319    
          134.367         134.418         134.470         134.524         134.581         134.641         134.703         134.747         134.775         134.760    
          134.794         134.810         134.847         134.827         134.860         134.909         134.989         135.070         135.152         135.228    
          135.301         135.371         135.440         135.512         135.587         135.667         135.710         135.642         135.686         135.770    
          135.821         135.741         135.802         135.920         136.089         136.268         136.447         136.621         136.791         136.958    
          137.123         137.282         137.433         137.579         137.725         137.873         138.025         138.182         138.343         138.506    
          138.672         138.839         139.012         139.187         139.356         139.519         139.679         139.837         139.998         140.164    
          140.339         140.524         140.720         140.918         141.081         133.677         133.694         133.713         133.736         133.761    
          133.787         133.815         133.844         133.874         133.906         133.938         133.972         134.008         134.044         134.083    
          134.123         134.164         134.207         134.251         134.296         134.344         134.394         134.446         134.500         134.556    
          134.614         134.674         134.737         134.778         134.809         134.793         134.822         134.842         134.874         134.857    
          134.884         134.910         134.940         134.919         134.953         135.002         135.076         135.149         135.218         135.283    
          135.346         135.411         135.481         135.544         135.576         135.534         135.571         135.621         135.669         135.615    
          135.662         135.723         135.785         135.715         135.777         135.860         135.928         135.848         135.928         136.066    
          136.258         136.447         136.628         136.804         136.974         137.139         137.299         137.451         137.597         137.743    
          137.893         138.046         138.203         138.363         138.525         138.690         138.858         139.030         139.203         139.370    
          139.535         139.694         139.850         140.008         140.171         140.342         140.525         140.719         140.915         141.080    
          133.701         133.719         133.740         133.764         133.791         133.819         133.849         133.880         133.913         133.947    
          133.982         134.019         134.058         134.098         134.139         134.183         134.227         134.272         134.320         134.369    
          134.420         134.474         134.529         134.586         134.644         134.704         134.767         134.830         134.894         134.936    
          134.968         134.951         134.981         135.004         135.033         135.018         135.047         135.072         135.101         135.084    
          135.112         135.140         135.168         135.149         135.177         135.206         135.233         135.214         135.241         135.269    
          135.295         135.277         135.304         135.331         135.357         135.341         135.368         135.393         135.422         135.406    
          135.436         135.463         135.495         135.477         135.509         135.536         135.574         135.553         135.589         135.619    
          135.666         135.636         135.682         135.719         135.780         135.735         135.795         135.851         135.933         135.865    
          135.944         136.071         136.267         136.461         136.647         136.824         136.993         137.159         137.320         137.472    
          137.619         137.765         137.915         138.070         138.228         138.388         138.549         138.713         138.878         139.049    
          139.220         139.389         139.553         139.712         139.867         140.022         140.183         140.355         140.539         140.729    
          140.922         141.086         133.727         133.745         133.768         133.794         133.823         133.853         133.885         133.919    
          133.955         133.992         134.030         134.071         134.112         134.156         134.201         134.247         134.294         134.342    
          134.393         134.446         134.500         134.556         134.613         134.673         134.734         134.797         134.861         134.926    
          134.992         135.059         135.125         135.191         135.259         135.326         135.395         135.465         135.537         135.616    
          135.668         135.710         135.702         135.743         135.760         135.818         135.798         135.847         135.886         135.964    
          135.915         135.987         136.054         136.132         136.069         136.155         136.292         136.488         136.675         136.851    
          137.021         137.187         137.346         137.497         137.644         137.792         137.942         138.098         138.259         138.419    
          138.579         138.741         138.906         139.074         139.243         139.410         139.574         139.732         139.886         140.040    
          140.202         140.374         140.557         140.749         140.941         141.103         133.754         133.774         133.799         133.827    
          133.858         133.890         133.925         133.962         134.001         134.041         134.083         134.127         134.172         134.218    
          134.266         134.314         134.364         134.416         134.470         134.525         134.582         134.641         134.701         134.763    
          134.827         134.893         134.961         135.030         135.101         135.175         135.249         135.324         135.398         135.473    
          135.547         135.623         135.704         135.790         135.889         135.959         136.024         135.999         136.069         136.100    
          136.186         136.146         136.214         136.342         136.533         136.716         136.891         137.060         137.222         137.378    
          137.528         137.676         137.823         137.975         138.133         138.295         138.456         138.615         138.777         138.941    
          139.105         139.270         139.435         139.599         139.757         139.910         140.065         140.227         140.399         140.581    
          140.772         140.967         141.128         133.784         133.806         133.832         133.862         133.895         133.931         133.969    
          134.009         134.051         134.095         134.140         134.187         134.235         134.285         134.335         134.386         134.439    
          134.494         134.551         134.609         134.668         134.729         134.793         134.859         134.927         134.998         135.070    
          135.147         135.227         135.310         135.391         135.473         135.554         135.635         135.717         135.802         135.892    
          135.949         135.991         135.992         136.047         136.052         136.122         136.107         136.168         136.251         136.418    
          136.595         136.770         136.942         137.107         137.266         137.419         137.569         137.716         137.862         138.014    
          138.174         138.337         138.499         138.660         138.821         138.983         139.141         139.301         139.466         139.629    
          139.785         139.939         140.095         140.258         140.430         140.611         140.802         140.998         141.161         133.816    
          133.839         133.868         133.900         133.936         133.975         134.016         134.060         134.105         134.153         134.202    
          134.252         134.303         134.355         134.408         134.462         134.518         134.576         134.635         134.695         134.758    
          134.823         134.891         134.962         135.036         135.113         135.194         135.281         135.372         135.461         135.550    
          135.639         135.728         135.815         135.905         135.999         136.053         136.103         136.103         136.153         136.164    
          136.229         136.217         136.276         136.352         136.505         136.671         136.837         137.002         137.164         137.320    
          137.471         137.620         137.767         137.911         138.062         138.222         138.386         138.550         138.711         138.871    
          139.029         139.183         139.339         139.500         139.660         139.816         139.970         140.128         140.293         140.465    
          140.646         140.837         141.035         141.200         133.850         133.875         133.906         133.941         133.981         134.023    
          134.068         134.115         134.165         134.216         134.268         134.320         134.374         134.429         134.485         134.543    
          134.602         134.662         134.723         134.787         134.855         134.926         135.000         135.078         135.159         135.247    
          135.340         135.438         135.537         135.636         135.734         135.828         135.919         136.013         136.109         136.211    
          136.276         136.335         136.318         136.377         136.451         136.597         136.754         136.913         137.073         137.231    
          137.385         137.533         137.682         137.829         137.971         138.120         138.277         138.440         138.605         138.765    
          138.923         139.076         139.227         139.380         139.537         139.695         139.849         140.005         140.165         140.331    
          140.505         140.685         140.877         141.074         141.238         133.887         133.914         133.948         133.987         134.030    
          134.076         134.125         134.176         134.228         134.282         134.337         134.393         134.450         134.508         134.567    
          134.628         134.689         134.752         134.819         134.889         134.963         135.041         135.124         135.212         135.305    
          135.407         135.515         135.624         135.732         135.835         135.933         136.031         136.130         136.221         136.315    
          136.373         136.431         136.415         136.471         136.546         136.690         136.841         136.995         137.153         137.307    
          137.458         137.605         137.754         137.899         138.040         138.186         138.338         138.497         138.660         138.819    
          138.972         139.122         139.273         139.424         139.579         139.733         139.887         140.046         140.207         140.373    
          140.547         140.728         140.919         141.116         141.280         133.927         133.958         133.996         134.038         134.085    
          134.134         134.186         134.240         134.296         134.353         134.411         134.470         134.531         134.592         134.654    
          134.718         134.784         134.852         134.926         135.004         135.087         135.176         135.272         135.374         135.485    
          135.603         135.723         135.839         135.951         136.057         136.161         136.255         136.338         136.424         136.472    
          136.526         136.519         136.571         136.641         136.782         136.929         137.082         137.236         137.388         137.537    
          137.686         137.834         137.975         138.113         138.253         138.398         138.554         138.713         138.869         139.020    
          139.169         139.320         139.470         139.622         139.775         139.930         140.090         140.251         140.417         140.591    
          140.772         140.963         141.161         141.323         133.973         134.008         134.049         134.095         134.144         134.196    
          134.251         134.308         134.367         134.428         134.490         134.553         134.617         134.682         134.748         134.817    
          134.889         134.966         135.049         135.137         135.235         135.340         135.452         135.576         135.708         135.840    
          135.968         136.087         136.196         136.295         136.381         136.459         136.539         136.582         136.633         136.629    
          136.679         136.742         136.876         137.020         137.171         137.324         137.475         137.624         137.773         137.916    
          138.050         138.182         138.317         138.461         138.611         138.766         138.917         139.065         139.216         139.325    
          139.390         139.340         139.418         139.475         139.537         139.500         139.563         139.624         139.690         139.651    
          139.718         139.779         139.847         139.807         139.876         139.937         140.002         139.964         140.030         140.092    
          140.160         140.119         140.186         140.252         140.323         140.274         140.353         140.416         140.490         140.438    
          140.519         140.586         140.662         140.606         140.689         140.816         141.009         141.207         141.369         134.027    
          134.063         134.106         134.154         134.206         134.262         134.320         134.381         134.444         134.509         134.575    
          134.642         134.711         134.781         134.853         134.929         135.011         135.100         135.196         135.302         135.418    
          135.546         135.686         135.832         135.976         136.111         136.229         136.334         136.426         136.502         136.573    
          136.647         136.689         136.737         136.731         136.778         136.841         136.971         137.113         137.264         137.416    
          137.564         137.712         137.857         137.991         138.118         138.249         138.384         138.524         138.669         138.775    
          138.837         138.790         138.863         138.919         138.982         138.943         139.005         139.066         139.131         139.091    
          139.155         139.216         139.281         139.242         139.307         139.364         139.441         139.394         139.459         139.571    
          139.728         139.886         140.041         140.198         140.305         140.381         140.335         140.405         140.464         140.546    
          140.496         140.569         140.633         140.719         140.664         140.738         140.815         140.893         140.834         140.921    
          141.054         141.251         141.415         134.083         134.121         134.166         134.217         134.272         134.332         134.394    
          134.459         134.527         134.597         134.668         134.741         134.816         134.893         134.974         135.062         135.158    
          135.264         135.382         135.512         135.657         135.812         135.968         136.115         136.249         136.365         136.463    
          136.545         136.613         136.677         136.711         136.739         136.747         136.785         136.781         136.830         136.828    
          136.866         136.935         137.066         137.208         137.358         137.505         137.650         137.793         137.930         138.059    
          138.184         138.314         138.448         138.543         138.602         138.562         138.632         138.679         138.736         138.706    
          138.763         138.812         138.885         138.842         138.903         139.011         139.166         139.322         139.479         139.636    
          139.796         139.957         140.112         140.263         140.417         140.575         140.740         140.862         140.948         140.886    
          140.963         141.048         141.130         141.063         141.155         141.293         141.453         134.142         134.182         134.230    
          134.284         134.343         134.407         134.474         134.545         134.619         134.696         134.773         134.854         134.936    
          135.025         135.120         135.226         135.343         135.473         135.617         135.776         135.940         136.100         136.248    
          136.378         136.488         136.580         136.654         136.717         136.771         136.796         136.831         136.832         136.865    
          136.915         137.031         137.161         137.299         137.442         137.586         137.729         137.867         138.000         138.126    
          138.249         138.377         138.466         138.520         138.488         138.556         138.591         138.662         138.628         138.684    
          138.780         138.926         139.082         139.240         139.398         139.556         139.715         139.875         140.030         140.180    
          140.330         140.479         140.630         140.785         140.954         141.086         141.178         141.103         141.185         141.284    
          141.364         141.293         141.372         141.452         141.459         134.203         134.246         134.297         134.355         134.419    
          134.488         134.563         134.642         134.724         134.809         134.896         134.986         135.083         135.188         135.304    
          135.432         135.575         135.730         135.900         136.070         136.234         136.380         136.507         136.612         136.700    
          136.770         136.824         136.871         136.886         136.915         136.934         136.963         136.964         137.012         137.012    
          137.059         137.125         137.250         137.383         137.525         137.666         137.804         137.938         138.068         138.190    
          138.312         138.440         138.524         138.592         138.552         138.620         138.709         138.854         139.006         139.165    
          139.323         139.480         139.641         139.804         139.962         140.114         140.261         140.405         140.545         140.683    
          140.827         140.982         141.152         141.332         141.481         134.268         134.313         134.368         134.431         134.503    
          134.581         134.666         134.756         134.848         134.944         135.044         135.152         135.269         135.397         135.539    
          135.695         135.865         136.044         136.219         136.381         136.523         136.642         136.742         136.826         136.889    
          136.938         136.986         137.038         137.072         137.118         137.119         137.164         137.224         137.342         137.472    
          137.607         137.743         137.878         138.011         138.136         138.255         138.379         138.467         138.520         138.493    
          138.561         138.591         138.659         138.633         138.689         138.787         138.940         139.098         139.261         139.422    
          139.583         139.748         139.915         140.072         140.221         140.359         140.490         140.614         140.735         140.860    
          140.995         141.145         141.321         141.470         134.335         134.384         134.445         134.518         134.601         134.693    
          134.790         134.892         134.999         135.113         135.234         135.366         135.511         135.668         135.842         136.025    
          136.208         136.383         136.542         136.677         136.786         136.879         136.955         137.012         137.060         137.107    
          137.159         137.186         137.224         137.237         137.277         137.278         137.324         137.327         137.373         137.438    
          137.561         137.690         137.821         137.951         138.039         138.092         138.066         138.132         138.162         138.212    
          138.199         138.249         138.281         138.332         138.319         138.371         138.404         138.459         138.444         138.501    
          138.533         138.603         138.578         138.635         138.731         138.885         139.042         139.206         139.375         139.545    
          139.712         139.884         140.055         140.214         140.356         140.478         140.589         140.690         140.785         140.884    
          140.987         141.109         141.303         141.453         134.407         134.464         134.536         134.623         134.722         134.829    
          134.944         135.065         135.195         135.334         135.486         135.649         135.826         136.008         136.196         136.380    
          136.554         136.707         136.836         136.943         137.027         137.096         137.149         137.194         137.236         137.284    
          137.348         137.387         137.430         137.436         137.480         137.488         137.537         137.535         137.584         137.651    
          137.774         137.857         137.909         137.888         137.954         137.980         138.033         138.023         138.076         138.103    
          138.169         138.146         138.200         138.282         138.409         138.541         138.686         138.839         138.996         139.159    
          139.332         139.515         139.699         139.879         140.063         140.236         140.385         140.513         140.615         140.698    
          140.773         140.834         140.903         140.962         141.002         134.492         134.562         134.650         134.755         134.874    
          135.004         135.144         135.294         135.456         135.630         135.812         135.997         136.187         136.379         136.564    
          136.734         136.882         137.005         137.107         137.190         137.256         137.302         137.340         137.375         137.418    
          137.475         137.553         137.596         137.642         137.648         137.696         137.701         137.747         137.755         137.803    
          137.815         137.867         137.870         137.924         137.936         138.004         137.993         138.046         138.122         138.250    
          138.381         138.511         138.652         138.801         138.956         139.116         139.292         139.489         139.692         139.895    
          140.094         140.277         140.442         140.586         140.701         140.780         140.824         140.878         140.879         140.933    
          134.598         134.684         134.794         134.926         135.075         135.239         135.414         135.602         135.795         135.988    
          136.184         136.382         136.578         136.764         136.931         137.074         137.192         137.289         137.368         137.430    
          137.475         137.507         137.536         137.574         137.627         137.700         137.781         137.886         138.007         138.127    
          138.251         138.379         138.506         138.638         138.776         138.925         139.084         139.254         139.451         139.677    
          139.910         140.129         140.332         140.515         140.680         140.827         140.938         140.993         140.950         141.045    
          134.733         134.842         134.987         135.160         135.352         135.556         135.766         135.973         136.180         136.387    
          136.594         136.796         136.984         137.148         137.285         137.396         137.488         137.563         137.624         137.671    
          137.706         137.736         137.768         137.818         137.895         137.979         138.084         138.198         138.311         138.429    
          138.548         138.664         138.787         138.919         139.070         139.236         139.419         139.630         139.890         140.141    
          140.378         140.592         140.780         140.944         141.119         141.252         141.324         134.906         135.063         135.264    
          135.489         135.720         135.943         136.164         136.385         136.606         136.823         137.034         137.223         137.383    
          137.513         137.616         137.702         137.776         137.846         137.906         137.950         137.984         138.027         138.105    
          138.209         138.309         138.412         138.505         138.598         138.693         138.782         138.870         138.974         139.092    
          139.243         139.413         139.601         139.801         140.092         140.382         140.650         140.889         141.081         141.214    
          135.166         135.393         135.652         135.898         136.132         136.366         136.603         136.840         137.071         137.292    
          137.484         137.640         137.760         137.850         137.934         137.997         138.103         138.200         138.254         138.291    
          138.353         138.484         138.656         138.781         138.876         138.950         138.999         139.050         139.084         139.112    
          139.180         139.275         139.420         139.591         139.757         139.868         135.562         135.844         136.092         136.330    
          136.575         136.830         137.086         137.336         137.571         137.769         137.924         138.029         138.096         138.190    
          138.188         138.402         136.072         136.301         136.527         136.783         137.061         137.344         137.626         137.884    
          138.099         138.256         138.340         138.323         138.551         136.511         136.698         136.971         137.293         137.619    
          137.960         138.255         138.496         138.667         138.762    
1
  HEAD IN LAYER   3 AT END OF TIME STEP   1 IN STRESS PERIOD    1
  ---------------------------------------------------------------------------

                1               2               3               4               5               6               7               8               9              10
               11              12              13              14              15              16              17              18              19              20
               21              22              23              24              25              26              27              28              29              30
               31              32              33              34              35              36              37              38              39              40
               41              42              43              44              45              46              47              48              49              50
               51              52              53              54              55              56              57              58              59              60
               61              62              63              64              65              66              67              68              69              70
               71              72              73              74              75              76              77              78              79              80
               81              82              83              84              85              86              87              88              89              90
               91              92              93              94              95              96              97              98              99             100
              101             102             103             104             105             106             107             108             109             110
              111             112             113             114             115             116             117             118             119             120
              121             122             123             124             125             126             127             128             129             130
              131             132             133             134             135             136             137             138             139             140
              141             142             143             144             145             146             147             148             149             150
              151             152             153             154             155             156             157             158             159             160
              161             162             163             164             165             166             167             168             169             170
              171             172             173             174             175             176             177             178             179             180
              181             182             183             184             185             186             187             188             189             190
              191             192             193             194             195             196             197             198             199             200
              201             202             203             204             205             206             207             208             209             210
              211             212             213             214             215             216             217             218             219             220
              221             222             223             224             225             226             227             228             229             230
              231             232             233             234             235             236             237             238             239             240
              241             242             243             244             245             246             247             248             249             250
              251             252             253             254             255             256             257             258             259             260
              261             262             263             264             265             266             267             268             269             270
              271             272             273             274             275             276             277             278             279             280
              281             282             283             284             285             286             287             288             289             290
              291             292             293             294             295             296             297             298             299             300
              301             302             303             304             305             306             307             308             309             310
              311             312             313             314             315             316             317             318             319             320
              321             322             323             324             325             326             327             328             329             330
              331             332             333             334             335             336             337             338             339             340
              341             342             343             344             345             346             347             348             349             350
              351             352             353             354             355             356             357             358             359             360
              361             362             363             364             365             366             367             368             369             370
              371             372             373             374             375             376             377             378             379             380
              381             382             383             384             385             386             387             388             389             390
              391             392             393             394             395             396             397             398             399             400
              401             402             403             404             405             406             407             408             409             410
              411             412             413             414             415             416             417             418             419             420
              421             422             423             424             425             426             427             428             429             430
              431             432             433             434             435             436             437             438             439             440
              441             442             443             444             445             446             447             448             449             450
              451             452             453             454             455             456             457             458             459             460
              461             462             463             464             465             466             467             468             469             470
              471             472             473             474             475             476             477             478             479             480
              481             482             483             484             485             486             487             488             489             490
              491             492             493             494             495             496             497             498             499             500
              501             502             503             504             505             506             507             508             509             510
              511             512             513             514             515             516             517             518             519             520
              521             522             523             524             525             526             527             528             529             530
              531             532             533             534             535             536             537             538             539             540
              541             542             543             544             545             546             547             548             549             550
              551             552             553             554             555             556             557             558             559             560
              561             562             563             564             565             566             567             568             569             570
              571             572             573             574             575             576             577             578             579             580
              581             582             583             584             585             586             587             588             589             590
              591             592             593             594             595             596             597             598             599             600
              601             602             603             604             605             606             607             608             609             610
              611             612             613             614             615             616             617             618             619             620
              621             622             623             624             625             626             627             628             629             630
              631             632             633             634             635             636             637             638             639             640
              641             642             643             644             645             646             647             648             649             650
              651             652             653             654             655             656             657             658             659             660
              661             662             663             664             665             666             667             668             669             670
              671             672             673             674             675             676             677             678             679             680
              681             682             683             684             685             686             687             688             689             690
              691             692             693             694             695             696             697             698             699             700
              701             702             703             704             705             706             707             708             709             710
              711             712             713             714             715             716             717             718             719             720
              721             722             723             724             725             726             727             728             729             730
              731             732             733             734             735             736             737             738             739             740
              741             742             743             744             745             746             747             748             749             750
              751             752             753             754             755             756             757             758             759             760
              761             762             763             764             765             766             767             768             769             770
              771             772             773             774             775             776             777             778             779             780
              781             782             783             784             785             786             787             788             789             790
              791             792             793             794             795             796             797             798             799             800
              801             802             803             804             805             806             807             808             809             810
              811             812             813             814             815             816             817             818             819             820
              821             822             823             824             825             826             827             828             829             830
              831             832             833             834             835             836             837             838             839             840
              841             842             843             844             845             846             847             848             849             850
              851             852             853             854             855             856             857             858             859             860
              861             862             863             864             865             866             867             868             869             870
              871             872             873             874             875             876             877             878             879             880
              881             882             883             884             885             886             887             888             889             890
              891             892             893             894             895             896             897             898             899             900
              901             902             903             904             905             906             907             908             909             910
              911             912             913             914             915             916             917             918             919             920
              921             922             923             924             925             926             927             928             929             930
              931             932             933             934             935             936             937             938             939             940
              941             942             943             944             945             946             947             948             949             950
              951             952             953             954             955             956             957             958             959             960
              961             962             963             964             965             966             967             968             969             970
              971             972             973             974             975             976             977             978             979             980
              981             982             983             984             985             986             987             988             989             990
              991             992             993             994             995             996             997             998             999            1000
             1001            1002            1003            1004            1005            1006            1007            1008            1009            1010
             1011            1012            1013            1014            1015            1016            1017            1018            1019            1020
             1021            1022            1023            1024            1025            1026            1027            1028            1029            1030
             1031            1032            1033            1034            1035            1036            1037            1038            1039            1040
             1041            1042            1043            1044            1045            1046            1047            1048            1049            1050
             1051            1052            1053            1054            1055            1056            1057            1058            1059            1060
             1061            1062            1063            1064            1065            1066            1067            1068            1069            1070
             1071            1072            1073            1074            1075            1076            1077            1078            1079            1080
             1081            1082            1083            1084            1085            1086            1087            1088            1089            1090
             1091            1092            1093            1094            1095            1096            1097            1098            1099            1100
             1101            1102            1103            1104            1105            1106            1107            1108            1109            1110
             1111            1112            1113            1114            1115            1116            1117            1118            1119            1120
             1121            1122            1123            1124            1125            1126            1127            1128            1129            1130
             1131            1132            1133            1134            1135            1136            1137            1138            1139            1140
             1141            1142            1143            1144            1145            1146            1147            1148            1149            1150
             1151            1152            1153            1154            1155            1156            1157            1158            1159            1160
             1161            1162            1163            1164            1165            1166            1167            1168            1169            1170
             1171            1172            1173            1174            1175            1176            1177            1178            1179            1180
             1181            1182            1183            1184            1185            1186            1187            1188            1189            1190
             1191            1192            1193            1194            1195            1196            1197            1198            1199            1200
             1201            1202            1203            1204            1205            1206            1207            1208            1209            1210
             1211            1212            1213            1214            1215            1216            1217            1218            1219            1220
             1221            1222            1223            1224            1225            1226            1227            1228            1229            1230
             1231            1232            1233            1234            1235            1236            1237            1238            1239            1240
             1241            1242            1243            1244            1245            1246            1247            1248            1249            1250
             1251            1252            1253            1254            1255            1256            1257            1258            1259            1260
             1261            1262            1263            1264            1265            1266            1267            1268            1269            1270
             1271            1272            1273            1274            1275            1276            1277            1278            1279            1280
             1281            1282            1283            1284            1285            1286            1287            1288            1289            1290
             1291            1292            1293            1294            1295            1296            1297            1298            1299            1300
             1301            1302            1303            1304            1305            1306            1307            1308            1309            1310
             1311            1312            1313            1314            1315            1316            1317            1318            1319            1320
             1321            1322            1323            1324            1325            1326            1327            1328            1329            1330
             1331            1332            1333            1334            1335            1336            1337            1338            1339            1340
             1341            1342            1343            1344            1345            1346            1347            1348            1349            1350
             1351            1352            1353            1354            1355            1356            1357            1358            1359            1360
             1361            1362            1363            1364            1365            1366            1367            1368            1369            1370
             1371            1372            1373            1374            1375            1376            1377            1378            1379            1380
             1381            1382            1383            1384            1385            1386            1387            1388            1389            1390
             1391            1392            1393            1394            1395            1396            1397            1398            1399            1400
             1401            1402            1403            1404            1405            1406            1407            1408            1409            1410
             1411            1412            1413            1414            1415            1416            1417            1418            1419            1420
             1421            1422            1423            1424            1425            1426            1427            1428            1429            1430
             1431            1432            1433            1434            1435            1436            1437            1438            1439            1440
             1441            1442            1443            1444            1445            1446            1447            1448            1449            1450
             1451            1452            1453            1454            1455            1456            1457            1458            1459            1460
             1461            1462            1463            1464            1465            1466            1467            1468            1469            1470
             1471            1472            1473            1474            1475            1476            1477            1478            1479            1480
             1481            1482            1483            1484            1485            1486            1487            1488            1489            1490
             1491            1492            1493            1494            1495            1496            1497            1498            1499            1500
             1501            1502            1503            1504            1505            1506            1507            1508            1509            1510
             1511            1512            1513            1514            1515            1516            1517            1518            1519            1520
             1521            1522            1523            1524            1525            1526            1527            1528            1529            1530
             1531            1532            1533            1534            1535            1536            1537            1538            1539            1540
             1541            1542            1543            1544            1545            1546            1547            1548            1549            1550
             1551            1552            1553            1554            1555            1556            1557            1558            1559            1560
             1561            1562            1563            1564            1565            1566            1567            1568            1569            1570
             1571            1572            1573            1574            1575            1576            1577            1578            1579            1580
             1581            1582            1583            1584            1585            1586            1587            1588            1589            1590
             1591            1592            1593            1594            1595            1596            1597            1598            1599            1600
             1601            1602            1603            1604            1605            1606            1607            1608            1609            1610
             1611            1612            1613            1614            1615            1616            1617            1618            1619            1620
             1621            1622            1623            1624            1625            1626            1627            1628            1629            1630
             1631            1632            1633            1634            1635            1636            1637            1638            1639            1640
             1641            1642            1643            1644            1645            1646            1647            1648            1649            1650
             1651            1652            1653            1654            1655            1656            1657            1658            1659            1660
             1661            1662            1663            1664            1665            1666            1667            1668            1669            1670
             1671            1672            1673            1674            1675            1676            1677            1678            1679            1680
             1681            1682            1683            1684            1685            1686            1687            1688            1689            1690
             1691            1692            1693            1694            1695            1696            1697            1698            1699            1700
             1701            1702            1703            1704            1705            1706            1707            1708            1709            1710
             1711            1712            1713            1714            1715            1716            1717            1718            1719            1720
             1721            1722            1723            1724            1725            1726            1727            1728            1729            1730
             1731            1732            1733            1734            1735            1736            1737            1738            1739            1740
             1741            1742            1743            1744            1745            1746            1747            1748            1749            1750
             1751            1752            1753            1754            1755            1756            1757            1758            1759            1760
             1761            1762            1763            1764            1765            1766            1767            1768            1769            1770
             1771            1772            1773            1774            1775            1776            1777            1778            1779            1780
             1781            1782            1783            1784            1785            1786            1787            1788            1789            1790
             1791            1792            1793            1794            1795            1796            1797            1798            1799            1800
             1801            1802            1803            1804            1805            1806            1807            1808            1809            1810
             1811            1812            1813            1814            1815            1816            1817            1818            1819            1820
             1821            1822            1823            1824            1825            1826            1827            1828            1829            1830
             1831            1832            1833            1834            1835            1836            1837            1838            1839            1840
             1841            1842            1843            1844            1845            1846            1847            1848            1849            1850
             1851            1852            1853            1854            1855            1856            1857            1858            1859            1860
             1861            1862            1863            1864            1865            1866            1867            1868            1869            1870
             1871            1872            1873            1874            1875            1876            1877            1878            1879            1880
             1881            1882            1883            1884            1885            1886            1887            1888            1889            1890
             1891            1892            1893            1894            1895            1896            1897            1898            1899            1900
             1901            1902            1903            1904            1905            1906            1907            1908            1909            1910
             1911            1912            1913            1914            1915            1916            1917            1918            1919            1920
             1921            1922            1923            1924            1925            1926            1927            1928            1929            1930
             1931            1932            1933            1934            1935            1936            1937            1938            1939            1940
             1941            1942            1943            1944            1945            1946            1947            1948            1949            1950
             1951            1952            1953            1954            1955            1956            1957            1958            1959            1960
             1961            1962            1963            1964            1965            1966            1967            1968            1969            1970
             1971            1972            1973            1974            1975            1976            1977            1978            1979            1980
             1981            1982            1983            1984            1985            1986            1987            1988            1989            1990
             1991            1992            1993            1994            1995            1996            1997            1998            1999            2000
             2001            2002            2003            2004            2005            2006            2007            2008            2009            2010
             2011            2012            2013            2014            2015            2016            2017            2018            2019            2020
             2021            2022            2023            2024            2025            2026            2027            2028            2029            2030
             2031            2032            2033            2034            2035            2036            2037            2038            2039            2040
             2041            2042            2043            2044            2045            2046            2047            2048            2049            2050
             2051            2052            2053            2054            2055            2056            2057            2058            2059            2060
             2061            2062            2063            2064            2065            2066            2067            2068            2069            2070
             2071            2072            2073            2074            2075            2076            2077            2078            2079            2080
             2081            2082            2083            2084            2085            2086            2087            2088            2089            2090
             2091            2092            2093            2094            2095            2096            2097            2098            2099            2100
             2101            2102            2103            2104            2105            2106            2107            2108            2109            2110
             2111            2112            2113            2114            2115            2116            2117            2118            2119            2120
             2121            2122            2123            2124            2125            2126            2127            2128            2129            2130
             2131            2132            2133            2134            2135            2136            2137            2138            2139            2140
             2141            2142            2143            2144            2145            2146            2147            2148            2149            2150
             2151            2152            2153            2154            2155            2156            2157            2158            2159            2160
             2161            2162            2163            2164            2165            2166            2167            2168            2169            2170
             2171            2172            2173            2174            2175            2176            2177            2178            2179            2180
             2181            2182            2183            2184            2185            2186            2187            2188            2189            2190
             2191            2192            2193            2194            2195            2196            2197            2198            2199            2200
             2201            2202            2203            2204            2205            2206            2207            2208            2209            2210
             2211            2212            2213            2214            2215            2216            2217            2218            2219            2220
             2221            2222            2223            2224            2225            2226            2227            2228            2229            2230
             2231            2232            2233            2234            2235            2236            2237            2238            2239            2240
             2241            2242            2243            2244            2245            2246            2247            2248            2249            2250
             2251            2252            2253            2254            2255            2256            2257            2258            2259            2260
             2261            2262            2263            2264            2265            2266            2267            2268            2269            2270
             2271            2272            2273            2274            2275            2276            2277            2278            2279            2280
             2281            2282            2283            2284            2285            2286            2287            2288            2289            2290
             2291            2292            2293            2294            2295            2296            2297            2298            2299            2300
             2301            2302            2303            2304            2305            2306            2307            2308            2309            2310
             2311            2312            2313            2314            2315            2316            2317            2318            2319            2320
             2321            2322            2323            2324            2325            2326            2327            2328            2329            2330
             2331            2332            2333            2334            2335            2336            2337            2338            2339            2340
             2341            2342            2343            2344            2345            2346            2347            2348            2349            2350
             2351            2352            2353            2354            2355            2356            2357            2358            2359            2360
             2361            2362            2363            2364            2365            2366            2367            2368            2369            2370
             2371            2372            2373            2374            2375            2376            2377            2378            2379            2380
             2381            2382            2383            2384            2385            2386            2387            2388            2389            2390
             2391            2392            2393            2394            2395            2396            2397            2398            2399            2400
             2401            2402            2403            2404            2405            2406            2407            2408            2409            2410
             2411            2412            2413            2414            2415            2416            2417            2418            2419            2420
             2421            2422            2423            2424            2425            2426            2427            2428            2429            2430
             2431            2432            2433            2434            2435            2436            2437            2438            2439            2440
             2441            2442            2443            2444            2445            2446            2447            2448            2449            2450
             2451            2452            2453            2454            2455            2456            2457            2458            2459            2460
             2461            2462            2463            2464            2465            2466            2467            2468            2469            2470
             2471            2472            2473            2474            2475            2476            2477            2478            2479            2480
             2481            2482            2483            2484            2485            2486            2487            2488            2489            2490
             2491            2492            2493            2494            2495            2496            2497            2498            2499            2500
             2501            2502            2503            2504            2505            2506            2507            2508            2509            2510
             2511            2512            2513            2514            2515            2516            2517            2518            2519            2520
             2521            2522            2523            2524            2525            2526            2527            2528            2529            2530
             2531            2532            2533            2534            2535            2536            2537            2538            2539            2540
             2541            2542            2543            2544            2545            2546            2547            2548            2549            2550
             2551            2552            2553            2554            2555            2556            2557            2558            2559            2560
             2561            2562            2563            2564            2565            2566            2567            2568            2569            2570
             2571            2572            2573            2574            2575            2576            2577            2578            2579            2580
             2581            2582            2583            2584            2585            2586            2587            2588            2589            2590
             2591            2592            2593            2594            2595            2596            2597            2598            2599            2600
             2601            2602            2603            2604            2605            2606            2607            2608            2609            2610
             2611            2612            2613            2614            2615            2616            2617            2618            2619            2620
             2621            2622            2623            2624            2625            2626            2627            2628            2629            2630
             2631            2632            2633            2634            2635            2636            2637            2638            2639            2640
             2641            2642            2643            2644            2645            2646            2647            2648            2649            2650
             2651            2652            2653            2654            2655            2656            2657            2658            2659            2660
             2661            2662            2663            2664            2665            2666            2667            2668            2669            2670
             2671            2672            2673            2674            2675            2676            2677            2678            2679            2680
             2681            2682            2683            2684            2685            2686            2687            2688            2689            2690
             2691            2692            2693            2694            2695            2696            2697            2698            2699            2700
             2701            2702            2703            2704            2705            2706            2707            2708            2709            2710
             2711            2712            2713            2714            2715            2716            2717            2718            2719            2720
             2721            2722            2723            2724            2725            2726            2727            2728            2729            2730
             2731            2732            2733            2734            2735            2736            2737            2738            2739            2740
             2741            2742            2743            2744            2745            2746            2747            2748            2749            2750
             2751            2752            2753            2754            2755            2756            2757            2758            2759            2760
             2761            2762            2763            2764            2765            2766            2767            2768            2769            2770
             2771            2772            2773            2774            2775            2776            2777            2778            2779            2780
             2781            2782            2783            2784            2785            2786            2787            2788            2789            2790
             2791            2792            2793            2794            2795            2796            2797            2798            2799            2800
             2801            2802            2803            2804            2805            2806            2807            2808            2809            2810
             2811            2812            2813            2814            2815            2816            2817            2818            2819            2820
             2821            2822            2823            2824            2825            2826            2827            2828            2829            2830
             2831            2832            2833            2834            2835            2836            2837            2838            2839            2840
             2841            2842            2843            2844            2845            2846            2847            2848            2849            2850
             2851            2852            2853            2854            2855            2856            2857            2858            2859            2860
             2861            2862            2863            2864            2865            2866            2867            2868            2869            2870
             2871            2872            2873            2874            2875            2876            2877            2878            2879            2880
             2881            2882            2883            2884            2885            2886            2887            2888            2889            2890
             2891            2892            2893            2894            2895            2896            2897            2898            2899            2900
             2901            2902            2903            2904            2905            2906            2907            2908            2909            2910
             2911            2912            2913            2914            2915            2916            2917            2918            2919            2920
             2921            2922            2923            2924            2925            2926            2927            2928            2929            2930
             2931            2932            2933            2934            2935            2936            2937            2938            2939            2940
             2941            2942            2943            2944            2945            2946            2947            2948            2949            2950
             2951            2952            2953            2954            2955            2956            2957            2958            2959            2960
             2961            2962            2963            2964            2965            2966            2967            2968            2969            2970
             2971            2972            2973            2974            2975            2976            2977            2978            2979            2980
             2981            2982            2983            2984            2985            2986            2987            2988            2989            2990
             2991            2992            2993            2994            2995            2996            2997            2998            2999            3000
             3001            3002            3003            3004            3005            3006            3007            3008            3009            3010
             3011            3012            3013            3014            3015            3016            3017            3018            3019            3020
             3021            3022            3023            3024            3025            3026            3027            3028            3029            3030
             3031            3032            3033            3034            3035            3036            3037            3038            3039            3040
             3041            3042            3043            3044            3045            3046            3047            3048            3049            3050
             3051            3052            3053            3054            3055            3056            3057            3058            3059            3060
             3061            3062            3063            3064            3065            3066            3067            3068            3069            3070
             3071            3072            3073            3074            3075            3076            3077            3078            3079            3080
             3081            3082            3083            3084            3085            3086            3087            3088            3089            3090
             3091            3092            3093            3094            3095            3096            3097            3098            3099            3100
             3101            3102            3103            3104            3105            3106            3107            3108            3109            3110
             3111            3112            3113            3114            3115            3116            3117            3118            3119            3120
             3121            3122            3123            3124            3125            3126            3127            3128            3129            3130
             3131            3132            3133            3134            3135
 ................................................................................................................................................................
   1      133.680         133.679         133.678         133.677         133.679         133.683         133.679         133.682         133.690         133.708    
          133.736         133.772         133.815         133.863         133.915         133.971         134.028         134.086         134.145         134.201    
          134.252         134.295         134.323         133.677         133.678         133.678         133.677         133.677         133.679         133.682    
          133.679         133.681         133.687         133.692         133.686         133.692         133.706         133.732         133.767         133.809    
          133.856         133.909         133.965         134.023         134.082         134.141         134.199         134.253         134.301         134.342    
          134.378         133.672         133.675         133.676         133.676         133.676         133.677         133.680         133.686         133.692    
          133.687         133.692         133.700         133.709         133.700         133.708         133.722         133.735         133.720         133.734    
          133.760         133.800         133.847         133.899         133.956         134.015         134.075         134.135         134.195         134.253    
          134.307         134.357         134.402         134.443         133.668         133.670         133.673         133.675         133.676         133.677    
          133.679         133.683         133.690         133.704         133.720         133.732         133.720         133.731         133.748         133.762    
          133.746         133.762         133.791         133.837         133.889         133.945         134.005         134.066         134.128         134.190    
          134.252         134.311         134.368         134.422         134.472         134.518         133.662         133.666         133.669         133.673    
          133.676         133.678         133.680         133.683         133.688         133.695         133.707         133.726         133.745         133.761    
          133.747         133.759         133.779         133.796         133.777         133.796         133.829         133.880         133.936         133.996    
          134.058         134.121         134.184         134.249         134.313         134.376         134.438         134.498         134.555         134.608    
          133.656         133.660         133.665         133.669         133.673         133.677         133.681         133.685         133.690         133.695    
          133.703         133.714         133.731         133.755         133.778         133.796         133.781         133.796         133.818         133.836    
          133.817         133.838         133.875         133.930         133.989         134.050         134.113         134.178         134.245         134.313    
          134.382         134.451         134.519         134.587         134.653         134.716         133.650         133.654         133.659         133.664    
          133.670         133.675         133.681         133.686         133.692         133.698         133.705         133.713         133.725         133.742    
          133.764         133.793         133.820         133.840         133.824         133.842         133.865         133.886         133.866         133.890    
          133.928         133.985         134.045         134.107         134.172         134.240         134.311         134.384         134.459         134.536    
          134.614         134.693         134.772         134.849         133.643         133.648         133.653         133.659         133.665         133.672    
          133.678         133.685         133.692         133.700         133.707         133.716         133.726         133.739         133.756         133.778    
          133.806         133.841         133.871         133.894         133.877         133.897         133.921         133.943         133.923         133.947    
          133.986         134.042         134.102         134.165         134.233         134.306         134.383         134.464         134.549         134.636    
          134.727         134.822         134.920         135.021         133.638         133.642         133.646         133.652         133.659         133.666    
          133.674         133.682         133.691         133.700         133.709         133.719         133.729         133.741         133.756         133.774    
          133.796         133.823         133.857         133.897         133.929         133.952         133.935         133.956         133.980         134.001    
          133.983         134.004         134.031         134.054         134.033         134.055         134.086         134.112         134.085         134.113    
          134.159         134.226         134.300         134.380         134.465         134.556         134.651         134.753         134.862         134.980    
          135.112         135.284         135.433         135.566         135.690         135.808         135.922         136.032         136.139         136.244    
          136.348         136.451         136.553         136.655         136.758         136.862         136.969         137.078         137.191         137.308    
          137.428         137.550         137.674         137.799         137.925         138.052         138.182         138.315         138.454         138.597    
          138.747         138.903         139.063         139.224         139.383         139.531         139.639         133.638         133.641         133.646    
          133.653         133.660         133.669         133.678         133.687         133.697         133.708         133.719         133.731         133.743    
          133.758         133.774         133.793         133.816         133.843         133.875         133.912         133.954         133.999         134.048    
          134.087         134.114         134.090         134.113         134.145         134.170         134.145         134.169         134.207         134.236    
          134.203         134.237         134.293         134.374         134.462         134.557         134.659         134.768         134.886         135.013    
          135.149         135.293         135.432         135.562         135.684         135.801         135.914         136.024         136.131         136.236    
          136.339         136.442         136.545         136.647         136.751         136.856         136.963         137.074         137.188         137.306    
          137.427         137.551         137.676         137.802         137.928         138.056         138.186         138.320         138.460         138.605    
          138.758         138.916         139.077         139.244         139.412         139.583         139.744         139.902         133.638         133.641    
          133.647         133.654         133.662         133.672         133.682         133.693         133.705         133.717         133.730         133.744    
          133.759         133.775         133.792         133.813         133.836         133.863         133.894         133.929         133.968         134.010    
          134.055         134.104         134.158         134.203         134.236         134.204         134.236         134.289         134.368         134.457    
          134.554         134.659         134.772         134.895         135.027         135.161         135.295         135.427         135.553         135.673    
          135.788         135.900         136.008         136.115         136.220         136.323         136.426         136.530         136.633         136.738    
          136.844         136.953         137.065         137.181         137.302         137.426         137.552         137.679         137.806         137.934    
          138.062         138.193         138.329         138.471         138.618         138.773         138.934         139.101         139.273         139.453    
          139.642         139.828         140.007         140.170         133.639         133.642         133.648         133.656         133.665         133.676    
          133.687         133.700         133.713         133.727         133.742         133.757         133.774         133.792         133.811         133.833    
          133.857         133.884         133.914         133.948         133.984         134.024         134.066         134.113         134.164         134.206    
          134.237         134.210         134.236         134.273         134.302         134.271         134.305         134.362         134.449         134.546    
          134.652         134.767         134.892         135.027         135.159         135.288         135.417         135.539         135.657         135.770    
          135.880         135.988         136.094         136.198         136.302         136.406         136.511         136.615         136.721         136.830    
          136.941         137.055         137.174         137.298         137.425         137.554         137.683         137.811         137.940         138.070    
          138.202         138.339         138.483         138.633         138.791         138.956         139.128         139.305         139.493         139.693    
          139.892         140.084         140.263         140.415         133.640         133.643         133.650         133.658         133.668         133.680    
          133.693         133.707         133.722         133.737         133.754         133.771         133.789         133.809         133.830         133.852    
          133.877         133.904         133.934         133.967         134.002         134.040         134.081         134.125         134.173         134.228    
          134.274         134.306         134.278         134.306         134.345         134.377         134.343         134.379         134.442         134.535    
          134.640         134.755         134.880         135.015         135.148         135.275         135.401         135.522         135.637         135.749    
          135.857         135.963         136.069         136.174         136.278         136.383         136.489         136.595         136.703         136.814    
          136.927         137.044         137.166         137.293         137.424         137.555         137.686         137.816         137.947         138.078    
          138.212         138.349         138.495         138.647         138.808         138.977         139.153         139.336         139.529         139.733    
          139.937         140.135         140.321         140.487         140.621         133.642         133.645         133.652         133.661         133.672    
          133.685         133.699         133.715         133.731         133.748         133.766         133.785         133.805         133.826         133.848    
          133.871         133.897         133.925         133.954         133.986         134.021         134.058         134.097         134.139         134.186    
          134.237         134.296         134.345         134.380         134.349         134.379         134.421         134.456         134.418         134.457    
          134.524         134.625         134.738         134.863         134.998         135.131         135.257         135.381         135.501         135.614    
          135.724         135.831         135.936         136.042         136.147         136.252         136.359         136.466         136.574         136.685    
          136.798         136.914         137.035         137.159         137.289         137.424         137.556         137.689         137.821         137.954    
          138.087         138.221         138.359         138.506         138.661         138.825         138.996         139.177         139.363         139.559    
          139.764         139.967         140.164         140.353         140.527         140.674         140.786         133.644         133.648         133.655    
          133.665         133.677         133.691         133.706         133.722         133.740         133.759         133.778         133.799         133.820    
          133.842         133.865         133.890         133.916         133.944         133.974         134.006         134.040         134.077         134.115    
          134.157         134.201         134.250         134.305         134.368         134.420         134.457         134.423         134.455         134.501    
          134.537         134.497         134.538         134.611         134.719         134.842         134.977         135.110         135.236         135.359    
          135.477         135.589         135.697         135.803         135.908         136.013         136.119         136.225         136.333         136.442    
          136.553         136.667         136.783         136.903         137.026         137.154         137.287         137.424         137.559         137.693    
          137.827         137.961         138.095         138.231         138.370         138.516         138.672         138.839         139.012         139.196    
          139.389         139.588         139.789         139.986         140.177         140.363         140.539         140.694         140.813         140.886    
          133.647         133.651         133.659         133.669         133.682         133.697         133.713         133.731         133.749         133.769    
          133.790         133.812         133.834         133.858         133.882         133.907         133.934         133.963         133.994         134.026    
          134.061         134.097         134.135         134.176         134.219         134.267         134.319         134.377         134.442         134.498    
          134.537         134.501         134.535         134.584         134.624         134.580         134.624         134.703         134.822         134.955    
          135.089         135.214         135.336         135.452         135.562         135.670         135.774         135.879         135.984         136.091    
          136.198         136.308         136.419         136.533         136.650         136.771         136.894         137.021         137.151         137.287    
          137.425         137.561         137.698         137.833         137.968         138.104         138.242         138.381         138.528         138.685    
          138.850         139.026         139.215         139.413         139.612         139.807         139.996         140.179         140.359         140.532    
          140.689         140.809         140.874         133.651         133.655         133.663         133.673         133.687         133.703         133.720    
          133.739         133.759         133.780         133.802         133.825         133.848         133.873         133.898         133.924         133.952    
          133.982         134.013         134.046         134.081         134.118         134.156         134.197         134.240         134.286         134.336    
          134.391         134.452         134.521         134.581         134.624         134.584         134.621         134.675         134.718         134.670    
          134.720         134.806         134.936         135.069         135.194         135.313         135.426         135.535         135.641         135.745    
          135.850         135.955         136.062         136.172         136.283         136.398         136.515         136.636         136.760         136.888    
          137.019         137.152         137.288         137.427         137.565         137.703         137.840         137.976         138.114         138.252    
          138.393         138.541         138.699         138.865         139.041         139.233         139.436         139.632         139.820         140.000    
          140.174         140.347         140.514         140.667         140.784         140.848         133.655         133.659         133.667         133.679    
          133.693         133.709         133.727         133.747         133.768         133.790         133.814         133.837         133.862         133.887    
          133.913         133.940         133.969         134.000         134.032         134.066         134.102         134.139         134.179         134.220    
          134.263         134.309         134.358         134.411         134.469         134.534         134.608         134.672         134.720         134.675    
          134.722         134.800         134.922         135.051         135.176         135.292         135.401         135.508         135.613         135.717    
          135.821         135.927         136.035         136.146         136.260         136.378         136.499         136.624         136.752         136.884    
          137.019         137.155         137.293         137.432         137.571         137.710         137.848         137.986         138.125         138.265    
          138.407         138.556         138.714         138.882         139.061         139.255         139.456         139.648         139.827         139.998    
          140.165         140.330         140.490         140.635         140.748         140.811         133.659         133.663         133.672         133.684    
          133.699         133.716         133.735         133.755         133.777         133.800         133.824         133.849         133.874         133.901    
          133.927         133.956         133.985         134.017         134.051         134.086         134.123         134.161         134.202         134.244    
          134.288         134.334         134.384         134.436         134.493         134.556         134.625         134.682         134.727         134.690    
          134.733         134.802         134.914         135.037         135.159         135.272         135.378         135.482         135.586         135.689    
          135.793         135.899         136.008         136.121         136.238         136.359         136.485         136.614         136.747         136.884    
          137.022         137.162         137.301         137.440         137.579         137.719         137.858         137.997         138.138         138.279    
          138.422         138.573         138.735         138.906         139.087         139.278         139.474         139.659         139.830         139.992    
          140.153         140.310         140.462         140.601         140.710         140.771         133.662         133.668         133.678         133.690    
          133.706         133.723         133.742         133.763         133.786         133.810         133.835         133.860         133.886         133.913    
          133.941         133.970         134.001         134.034         134.069         134.105         134.144         134.183         134.225         134.268    
          134.314         134.362         134.412         134.466         134.523         134.584         134.651         134.702         134.742         134.714    
          134.748         134.789         134.829         134.793         134.838         134.913         135.027         135.143         135.253         135.357    
          135.459         135.561         135.662         135.766         135.872         135.983         136.098         136.218         136.343         136.473    
          136.607         136.746         136.886         137.028         137.170         137.312         137.453         137.591         137.730         137.870    
          138.011         138.153         138.296         138.444         138.597         138.760         138.931         139.113         139.304         139.490    
          139.665         139.828         139.985         140.138         140.290         140.436         140.569         140.675         140.735         133.666    
          133.674         133.684         133.697         133.713         133.731         133.750         133.772         133.794         133.819         133.844    
          133.870         133.897         133.925         133.954         133.985         134.017         134.051         134.087         134.125         134.165    
          134.206         134.249         134.294         134.341         134.390         134.442         134.497         134.554         134.614         134.678    
          134.748         134.803         134.846         134.810         134.852         134.918         135.020         135.128         135.235         135.337    
          135.437         135.538         135.638         135.740         135.847         135.959         136.077         136.201         136.330         136.465    
          136.605         136.747         136.892         137.037         137.182         137.327         137.469         137.607         137.744         137.885    
          138.027         138.171         138.317         138.469         138.627         138.789         138.954         139.134         139.325         139.504    
          139.669         139.827         139.977         140.125         140.272         140.414         140.543         140.644         140.703         133.681    
          133.692         133.706         133.721         133.739         133.758         133.780         133.803         133.827         133.853         133.880    
          133.908         133.937         133.967         133.999         134.032         134.068         134.105         134.145         134.186         134.228    
          134.273         134.320         134.368         134.419         134.473         134.528         134.585         134.644         134.706         134.772    
          134.821         134.860         134.829         134.867         134.925         135.017         135.117         135.220         135.320         135.419    
          135.519         135.618         135.719         135.825         135.938         136.060         136.188         136.321         136.461         136.606    
          136.753         136.902         137.051         137.199         137.346         137.488         137.625         137.762         137.903         138.046    
          138.190         138.339         138.494         138.652         138.812         138.974         139.150         139.339         139.516         139.677    
          139.828         139.974         140.118         140.260         140.399         140.524         140.622         140.680         133.702         133.715    
          133.730         133.748         133.767         133.788         133.811         133.836         133.862         133.889         133.918         133.948    
          133.979         134.012         134.047         134.084         134.124         134.164         134.207         134.251         134.298         134.346    
          134.396         134.448         134.502         134.557         134.614         134.673         134.734         134.777         134.804         134.786    
          134.817         134.839         134.876         134.850         134.884         134.936         135.019         135.112         135.211         135.309    
          135.407         135.506         135.605         135.706         135.812         135.904         135.955         135.896         135.954         136.023    
          136.078         136.017         136.081         136.180         136.318         136.463         136.612         136.764         136.917         137.069    
          137.220         137.367         137.509         137.646         137.781         137.920         138.064         138.211         138.361         138.515    
          138.672         138.828         138.987         139.161         139.351         139.530         139.689         139.837         139.979         140.120    
          140.259         140.394         140.514         140.610         140.666         133.726         133.741         133.757         133.776         133.797    
          133.819         133.844         133.871         133.899         133.928         133.959         133.992         134.026         134.063         134.101    
          134.142         134.184         134.229         134.274         134.322         134.371         134.422         134.475         134.529         134.585    
          134.642         134.700         134.759         134.799         134.829         134.812         134.839         134.861         134.894         134.874    
          134.902         134.932         134.962         134.939         134.973         135.028         135.116         135.212         135.309         135.405    
          135.504         135.603         135.704         135.787         135.832         135.785         135.838         135.893         135.953         135.896    
          135.956         136.017         136.084         136.020         136.087         136.155         136.212         136.155         136.221         136.324    
          136.473         136.626         136.781         136.936         137.091         137.242         137.389         137.530         137.666         137.801    
          137.940         138.085         138.233         138.382         138.533         138.686         138.841         139.000         139.174         139.365    
          139.547         139.705         139.851         139.992         140.131         140.268         140.400         140.518         140.611         140.665    
          133.753         133.768         133.786         133.806         133.829         133.854         133.880         133.908         133.939         133.970    
          134.004         134.040         134.078         134.118         134.160         134.204         134.250         134.297         134.346         134.396    
          134.448         134.501         134.556         134.612         134.669         134.726         134.784         134.843         134.906         134.952    
          134.985         134.964         134.995         135.026         135.061         135.038         135.073         135.110         135.149         135.121    
          135.160         135.202         135.243         135.212         135.253         135.297         135.337         135.306         135.347         135.392    
          135.435         135.403         135.446         135.493         135.535         135.504         135.546         135.592         135.634         135.603    
          135.646         135.692         135.734         135.703         135.746         135.791         135.845         135.806         135.853         135.903    
          135.964         135.915         135.976         136.027         136.094         136.040         136.105         136.162         136.232         136.173    
          136.243         136.343         136.491         136.646         136.804         136.961         137.114         137.266         137.413         137.551    
          137.686         137.822         137.962         138.108         138.259         138.408         138.557         138.705         138.857         139.016    
          139.188         139.376         139.560         139.724         139.871         140.013         140.153         140.287         140.417         140.532    
          140.622         140.676         133.781         133.798         133.818         133.840         133.864         133.890         133.919         133.949    
          133.982         134.016         134.053         134.093         134.134         134.178         134.224         134.271         134.319         134.369    
          134.421         134.473         134.527         134.582         134.638         134.695         134.752         134.810         134.869         134.932    
          135.000         135.076         135.161         135.251         135.347         135.447         135.548         135.647         135.747         135.856    
          135.936         135.993         135.958         136.011         136.057         136.120         136.081         136.137         136.189         136.261    
          136.209         136.279         136.336         136.397         136.350         136.417         136.520         136.676         136.833         136.990    
          137.143         137.294         137.438         137.574         137.708         137.844         137.986         138.135         138.289         138.440    
          138.586         138.731         138.879         139.038         139.210         139.391         139.574         139.743         139.895         140.040    
          140.180         140.314         140.441         140.553         140.640         140.694         133.812         133.831         133.852         133.876    
          133.902         133.930         133.960         133.993         134.029         134.067         134.107         134.150         134.196         134.243    
          134.292         134.342         134.393         134.445         134.498         134.554         134.609         134.665         134.722         134.778    
          134.837         134.898         134.962         135.033         135.110         135.196         135.289         135.387         135.488         135.590    
          135.690         135.792         135.902         136.021         136.147         136.236         136.303         136.259         136.329         136.372    
          136.440         136.400         136.456         136.561         136.714         136.870         137.025         137.177         137.325         137.466    
          137.600         137.733         137.870         138.014         138.167         138.323         138.475         138.621         138.765         138.912    
          139.069         139.236         139.412         139.592         139.763         139.921         140.070         140.212         140.346         140.472    
          140.583         140.670         140.722         133.846         133.866         133.889         133.914         133.942         133.973         134.006    
          134.042         134.081         134.123         134.167         134.214         134.263         134.313         134.365         134.417         134.470    
          134.525         134.581         134.637         134.694         134.750         134.807         134.867         134.930         134.997         135.070    
          135.149         135.238         135.334         135.434         135.536         135.639         135.740         135.846         135.960         136.084    
          136.170         136.222         136.196         136.259         136.290         136.357         136.323         136.385         136.471         136.614    
          136.762         136.914         137.067         137.217         137.361         137.500         137.633         137.765         137.901         138.047    
          138.203         138.360         138.513         138.663         138.809         138.957         139.108         139.269         139.441         139.619    
          139.789         139.948         140.101         140.245         140.381         140.508         140.620         140.709         140.761         133.883    
          133.905         133.929         133.957         133.987         134.020         134.056         134.096         134.138         134.184         134.233    
          134.284         134.335         134.389         134.443         134.497         134.553         134.610         134.667         134.724         134.782    
          134.840         134.900         134.966         135.036         135.112         135.194         135.285         135.385         135.487         135.591    
          135.695         135.800         135.910         136.030         136.157         136.238         136.296         136.275         136.330         136.360    
          136.424         136.396         136.456         136.537         136.674         136.815         136.964         137.114         137.261         137.405    
          137.542         137.675         137.807         137.943         138.089         138.245         138.403         138.559         138.712         138.860    
          139.007         139.155         139.310         139.478         139.650         139.819         139.979         140.133         140.281         140.420    
          140.549         140.663         140.753         140.805         133.923         133.946         133.973         134.003         134.036         134.072    
          134.112         134.155         134.202         134.253         134.305         134.359         134.414         134.469         134.526         134.584    
          134.641         134.699         134.757         134.816         134.876         134.939         135.006         135.080         135.159         135.245    
          135.340         135.442         135.550         135.659         135.765         135.870         135.982         136.109         136.240         136.364    
          136.440         136.499         136.474         136.532         136.607         136.736         136.873         137.017         137.165         137.312    
          137.454         137.591         137.726         137.860         137.999         138.146         138.298         138.452         138.611         138.765    
          138.913         139.060         139.206         139.359         139.520         139.687         139.853         140.014         140.169         140.319    
          140.462         140.594         140.710         140.802         140.854         133.966         133.992         134.021         134.054         134.090    
          134.130         134.174         134.222         134.274         134.327         134.383         134.440         134.498         134.557         134.616    
          134.676         134.735         134.795         134.855         134.917         134.983         135.054         135.132         135.216         135.307    
          135.407         135.515         135.632         135.745         135.850         135.949         136.067         136.201         136.333         136.452    
          136.521         136.578         136.557         136.612         136.680         136.801         136.932         137.073         137.219         137.366    
          137.510         137.648         137.787         137.925         138.067         138.213         138.357         138.506         138.663         138.816    
          138.965         139.114         139.262         139.412         139.570         139.731         139.893         140.053         140.209         140.359    
          140.504         140.639         140.759         140.853         140.905         134.014         134.042         134.074         134.110         134.150    
          134.195         134.243         134.296         134.351         134.408         134.468         134.529         134.590         134.651         134.713    
          134.775         134.837         134.900         134.965         135.035         135.112         135.196         135.287         135.384         135.490    
          135.610         135.735         135.851         135.955         136.060         136.184         136.311         136.435         136.544         136.605    
          136.659         136.642         136.694         136.756         136.869         136.994         137.132         137.277         137.425         137.571    
          137.716         137.861         138.002         138.143         138.280         138.416         138.562         138.716         138.870         139.022    
          139.172         139.320         139.469         139.622         139.779         139.938         140.096         140.251         140.402         140.548    
          140.686         140.809         140.904         140.956         134.067         134.098         134.133         134.173         134.218         134.266    
          134.319         134.376         134.436         134.497         134.561         134.625         134.689         134.754         134.819         134.884    
          134.951         135.021         135.098         135.181         135.273         135.372         135.479         135.598         135.731         135.862    
          135.986         136.094         136.203         136.320         136.432         136.543         136.644         136.694         136.742         136.734    
          136.780         136.832         136.938         137.060         137.197         137.343         137.495         137.647         137.800         137.945    
          138.082         138.214         138.343         138.480         138.629         138.782         138.933         139.080         139.228         139.334    
          139.397         139.353         139.431         139.482         139.546         139.513         139.577         139.633         139.699         139.664    
          139.729         139.788         139.855         139.817         139.883         139.944         140.010         139.970         140.035         140.097    
          140.164         140.122         140.187         140.250         140.317         140.270         140.344         140.401         140.466         140.420    
          140.492         140.548         140.612         140.567         140.636         140.732         140.857         140.954         141.007         134.125    
          134.160         134.199         134.243         134.292         134.345         134.403         134.464         134.528         134.595         134.662    
          134.730         134.798         134.866         134.936         135.007         135.084         135.167         135.259         135.360         135.470    
          135.593         135.728         135.871         136.009         136.135         136.243         136.347         136.458         136.562         136.663    
          136.745         136.786         136.826         136.823         136.860         136.905         137.007         137.131         137.272         137.422    
          137.577         137.732         137.885         138.024         138.153         138.281         138.415         138.558         138.703         138.805    
          138.866         138.827         138.900         138.947         139.010         138.980         139.041         139.094         139.156         139.126    
          139.188         139.241         139.303         139.273         139.336         139.384         139.461         139.420         139.483         139.590    
          139.742         139.893         140.044         140.195         140.297         140.368         140.323         140.389         140.443         140.516    
          140.471         140.536         140.591         140.662         140.618         140.680         140.738         140.795         140.755         140.819    
          140.903         141.000         141.052         134.190         134.228         134.272         134.320         134.373         134.432         134.495    
          134.561         134.630         134.701         134.773         134.845         134.917         134.990         135.067         135.151         135.244    
          135.345         135.457         135.581         135.719         135.869         136.017         136.153         136.273         136.381         136.490    
          136.598         136.690         136.771         136.808         136.833         136.844         136.876         136.866         136.900         136.906    
          136.930         136.973         137.076         137.208         137.353         137.507         137.661         137.815         137.963         138.093    
          138.218         138.352         138.492         138.588         138.646         138.611         138.682         138.724         138.782         138.758    
          138.816         138.859         138.931         138.895         138.954         139.056         139.206         139.355         139.506         139.659    
          139.808         139.955         140.103         140.250         140.395         140.541         140.685         140.780         140.843         140.801    
          140.858         140.909         140.956         140.924         140.975         141.036         141.082         134.262         134.304         134.351    
          134.405         134.463         134.527         134.596         134.667         134.742         134.818         134.894         134.971         135.049    
          135.133         135.226         135.327         135.437         135.561         135.700         135.852         136.006         136.150         136.282    
          136.404         136.516         136.624         136.716         136.794         136.861         136.890         136.917         136.921         136.947    
          136.973         137.046         137.159         137.297         137.445         137.595         137.741         137.890         138.031         138.158    
          138.286         138.422         138.518         138.572         138.542         138.609         138.644         138.715         138.680         138.737    
          138.836         138.980         139.128         139.281         139.434         139.586         139.735         139.882         140.025         140.169    
          140.311         140.450         140.588         140.726         140.859         140.942         140.993         140.956         141.001         141.041    
          141.068         141.050         141.078         141.091         141.101         134.340         134.387         134.439         134.497         134.562    
          134.632         134.707         134.785         134.865         134.947         135.029         135.114         135.206         135.306         135.416    
          135.538         135.675         135.824         135.977         136.130         136.275         136.409         136.532         136.640         136.737    
          136.819         136.887         136.945         136.966         136.989         137.004         137.029         137.020         137.049         137.061    
          137.091         137.134         137.251         137.391         137.535         137.678         137.823         137.967         138.100         138.226    
          138.355         138.489         138.579         138.644         138.606         138.672         138.763         138.915         139.065         139.215    
          139.368         139.522         139.674         139.822         139.965         140.103         140.241         140.374         140.504         140.633    
          140.759         140.880         140.989         141.075         141.124         134.426         134.477         134.535         134.601         134.672    
          134.750         134.832         134.917         135.004         135.093         135.187         135.287         135.396         135.516         135.648    
          135.795         135.948         136.105         136.260         136.403         136.533         136.650         136.752         136.842         136.916    
          136.979         137.034         137.085         137.111         137.143         137.151         137.186         137.234         137.353         137.487    
          137.626         137.769         137.907         138.044         138.172         138.298         138.428         138.516         138.572         138.544    
          138.615         138.644         138.714         138.688         138.746         138.846         139.006         139.164         139.317         139.468    
          139.621         139.772         139.917         140.054         140.186         140.314         140.437         140.555         140.670         140.782    
          140.888         140.988         141.074         141.125         134.521         134.578         134.644         134.717         134.798         134.885    
          134.975         135.069         135.166         135.268         135.377         135.495         135.623         135.766         135.921         136.079    
          136.239         136.393         136.535         136.661         136.771         136.868         136.950         137.019         137.079         137.132    
          137.186         137.211         137.244         137.260         137.295         137.294         137.341         137.345         137.392         137.457    
          137.585         137.722         137.857         137.991         138.079         138.132         138.109         138.175         138.203         138.255    
          138.243         138.296         138.327         138.383         138.368         138.425         138.457         138.511         138.501         138.557    
          138.585         138.658         138.633         138.692         138.790         138.949         139.112         139.274         139.426         139.578    
          139.729         139.877         140.017         140.147         140.270         140.388         140.498         140.601         140.699         140.793    
          140.884         140.970         141.066         141.120         134.628         134.694         134.769         134.853         134.945         135.042    
          135.143         135.249         135.360         135.478         135.604         135.743         135.895         136.055         136.217         136.381    
          136.535         136.674         136.794         136.899         136.989         137.064         137.131         137.189         137.243         137.300    
          137.366         137.407         137.453         137.459         137.508         137.515         137.567         137.567         137.620         137.689    
          137.819         137.903         137.957         137.941         138.010         138.031         138.083         138.080         138.132         138.152    
          138.218         138.202         138.253         138.333         138.466         138.602         138.743         138.898         139.058         139.224    
          139.387         139.541         139.694         139.842         139.985         140.118         140.240         140.354         140.458         140.552    
          140.638         140.717         140.791         140.871         140.924         134.751         134.828         134.917         135.013         135.116    
          135.225         135.340         135.460         135.588         135.726         135.874         136.032         136.198         136.367         136.533    
          136.687         136.819         136.931         137.030         137.113         137.186         137.250         137.308         137.362         137.423    
          137.491         137.584         137.636         137.687         137.696         137.750         137.752         137.803         137.815         137.867    
          137.874         137.927         137.936         137.989         137.997         138.065         138.059         138.110         138.184         138.308    
          138.435         138.572         138.707         138.853         139.008         139.168         139.336         139.503         139.659         139.809    
          139.953         140.089         140.214         140.328         140.431         140.522         140.598         140.664         140.723         140.767    
          134.898         134.990         135.090         135.200         135.317         135.441         135.571         135.709         135.857         136.012    
          136.178         136.350         136.525         136.693         136.843         136.967         137.074         137.166         137.244         137.313    
          137.376         137.434         137.495         137.562         137.639         137.735         137.837         137.949         138.070         138.192    
          138.315         138.433         138.557         138.687         138.819         138.966         139.120         139.278         139.448         139.615    
          139.768         139.915         140.054         140.181         140.297         140.403         140.498         140.572         140.626         140.670    
          135.072         135.176         135.292         135.418         135.551         135.690         135.837         135.993         136.157         136.330    
          136.508         136.690         136.858         137.001         137.118         137.219         137.304         137.376         137.441         137.504    
          137.571         137.643         137.721         137.816         137.921         138.026         138.137         138.251         138.363         138.471    
          138.578         138.691         138.810         138.936         139.079         139.227         139.377         139.539         139.704         139.855    
          139.998         140.132         140.251         140.353         140.453         140.541         140.598         135.272         135.394         135.529    
          135.671         135.815         135.969         136.131         136.303         136.483         136.669         136.854         137.019         137.154    
          137.264         137.356         137.432         137.498         137.563         137.630         137.707         137.796         137.903         138.034    
          138.163         138.275         138.380         138.474         138.557         138.640         138.724         138.818         138.921         139.040    
          139.173         139.309         139.444         139.587         139.754         139.906         140.048         140.178         140.286         140.358    
          135.510         135.651         135.796         135.942         136.097         136.263         136.441         136.627         136.817         137.001    
          137.163         137.293         137.394         137.475         137.541         137.597         137.657         137.721         137.806         137.919    
          138.070         138.258         138.420         138.548         138.633         138.681         138.723         138.771         138.829         138.904    
          138.995         139.105         139.229         139.354         139.468         139.553         135.782         135.923         136.065         136.216    
          136.381         136.562         136.750         136.941         137.125         137.283         137.407         137.499         137.567         137.620    
          137.656         137.698         136.052         136.183         136.317         136.476         136.658         136.846         137.039         137.220    
          137.373         137.493         137.573         137.623         137.662         136.290         136.380         136.538         136.720         136.903    
          137.099         137.282         137.429         137.540         137.605    

 HEAD WILL BE SAVED ON UNIT 1020 AT END OF TIME STEP    1, STRESS PERIOD    1

 SFR PACKAGE (SFR) STAGES FOR EACH CONTROL VOLUME   PERIOD      1   STEP        1
 -------------------------------------------------------------------------------------------------------------
                                                                                      STREAMBED    STREAMBED  
   NUMBER   CELLID                  STAGE        DEPTH        WIDTH       GWF HEAD   CONDUCTANCE    GRADIENT  
 -------------------------------------------------------------------------------------------------------------
     1      (1,2565)              143.61       0.0000       0.0000       141.71       1016.1       1.0000     
     2      (1,2563)              143.50       0.0000       0.0000       141.48       319.68       1.0000     
     3      (1,2561)              143.45       0.0000       0.0000       141.47       615.17       1.0000     
     4      (1,2560)              143.45       0.0000       0.0000       141.34       955.58       1.0000     
     5      (1,2557)              143.45       0.0000       0.0000       141.21       490.75       1.0000     
     6      (1,2485)              143.45       0.0000       0.0000       141.18       478.66       1.0000     
     7      (1,2484)              143.42       0.0000       0.0000       141.08       1093.8       1.0000     
     8      (1,2481)              143.33       0.0000       0.0000       140.98       60.480       1.0000     
     9      (1,2479)              143.33       0.0000       0.0000       140.96       862.27       1.0000     
     10     (1,2478)              143.33       0.0000       0.0000       140.87       978.05       1.0000     
     11     (1,2399)              143.33       0.0000       0.0000       140.84       371.52       1.0000     
     12     (1,2396)              143.33       0.0000       0.0000       140.74       584.06       1.0000     
     13     (1,2394)              143.28       0.0000       0.0000       140.72       998.78       1.0000     
     14     (1,2393)              143.25       0.0000       0.0000       140.64       98.496       1.0000     
     15     (1,2304)              143.14       0.0000       0.0000       140.61       917.57       1.0000     
     16     (1,2301)              143.14       0.0000       0.0000       140.52       910.66       1.0000     
     17     (1,2300)              143.14       0.0000       0.0000       140.44       65.664       1.0000     
     18     (1,2389)              143.14       0.0000       0.0000       140.47       812.16       1.0000     
     19     (1,2386)              143.07       0.0000       0.0000       140.38       870.91       1.0000     
     20     (1,2385)              143.07       0.0000       0.0000       140.30       278.21       1.0000     
     21     (1,2296)              143.07       0.0000       0.0000       140.27       603.07       1.0000     
     22     (1,2293)              143.07       0.0000       0.0000       140.17       893.38       1.0000     
     23     (1,2292)              143.07       0.0000       0.0000       140.11       884.74       1.0000     
     24     (1,2289)              143.07       0.0000       0.0000       140.01       910.66       1.0000     
     25     (1,2288)              143.07       0.0000       0.0000       139.94       153.79       1.0000     
     26     (1,2286)              143.03       0.0000       0.0000       139.92       781.06       1.0000     
     27     (1,2283)              143.03       0.0000       0.0000       139.83       889.92       1.0000     
     28     (1,2282)              143.03       0.0000       0.0000       139.77       877.82       1.0000     
     29     (1,2279)              143.03       0.0000       0.0000       139.68       884.74       1.0000     
     30     (1,2278)              143.03       0.0000       0.0000       139.62       896.83       1.0000     
     31     (1,2275)              143.03       0.0000       0.0000       139.54       172.80       1.0000     
     32     (1,2277)              143.03       0.0000       0.0000       139.56       730.94       1.0000     
     33     (1,2276)              143.03       0.0000       0.0000       139.49       908.93       1.0000     
     34     (1,2273)              143.03       0.0000       0.0000       139.41       891.65       1.0000     
     35     (1,2272)              143.03       0.0000       0.0000       139.33       454.46       1.0000     
     36     (1,2376)              143.03       0.0000       0.0000       139.36       442.37       1.0000     
     37     (1,2373)              143.03       0.0000       0.0000       139.27       881.28       1.0000     
     38     (1,2372)              143.03       0.0000       0.0000       139.21       881.28       1.0000     
     39     (1,2369)              143.01       0.0000       0.0000       139.12       902.02       1.0000     
     40     (1,2368)              142.55       0.0000       0.0000       139.06       806.98       1.0000     
     41     (1,2370)              142.55       0.0000       0.0000       139.08       82.944       1.0000     
     42     (1,2367)              142.05       0.0000       0.0000       138.99       902.02       1.0000     
     43     (1,2366)              141.75       0.0000       0.0000       138.94       898.56       1.0000     
     44     (1,2363)              141.22       0.0000       0.0000       138.86       876.10       1.0000     
     45     (1,2362)              140.98       0.0000       0.0000       138.78       926.21       1.0000     
     46     (1,2462)              140.62       0.0000       0.0000       138.80       5.1840       1.0000     
     47     (1,2459)              140.43       0.0000       0.0000       138.72       1069.6       1.0000     
     48     (1,2458)              140.43       0.0000       0.0000       138.67       362.88       1.0000     
     49     (1,2460)              140.05       0.0000       0.0000       138.69       713.66       1.0000     
     50     (1,2457)              140.05       0.0000       0.0000       138.62       705.02       1.0000     
     51     (1,2538)              139.72       0.0000       0.0000       138.65       412.99       1.0000     
     52     (1,2537)              139.72       0.0000       0.0000       138.58       983.23       1.0000     
     53     (1,2539)              139.56       0.0000       0.0000       138.62       190.08       0.94409    
     54     (1,2536)              139.54       0.0000       0.0000       138.55       886.46       0.98853    
     55     (1,2614)              139.39       0.0000       0.0000       138.58       635.90       0.80727    
     56     (1,2613)              139.36       0.0000       0.0000       138.52       435.46       0.84429    
     57     (1,2615)              139.20       0.0000       0.0000       138.54       955.58       0.65809    
     58     (1,2682)              139.02       0.0000       0.0000       138.58       884.74       0.44250    
     59     (1,2684)              138.96       0.0000       0.0000       138.61       539.14       0.34584    
     60     (1,2681)              138.89       0.0000       0.0000       138.55       447.55       0.34377    
     61     (1,2762)              138.89       0.0000       0.0000       138.58       857.09       0.30904    
     62     (1,2761)              138.84       0.0000       0.0000       138.51       364.61       0.32503    
     63     (1,2763)              138.84       0.0000       0.0000       138.55       627.26       0.28775    
     64     (1,2760)              138.65       0.0000       0.0000       138.48       978.05       0.17188    
     65     (1,2759)              138.58       0.0000       0.0000       138.42       883.01       0.15629    
     66     (1,2756)              138.49       0.0000       0.0000       138.35       903.74       0.13925    
     67     (1,2755)              138.33       0.0000       0.0000       138.30       896.83       3.35899E-02
     68     (1,2752)              138.33       0.0000       0.0000       138.23       910.66       0.10197    
     69     (1,2751)              138.33       0.0000       0.0000       138.17       926.21       0.15642    
     70     (1,2748)              138.33       0.0000       0.0000       138.11       38.016       0.22090    
     71     (1,2831)              138.33       0.0000       0.0000       138.14       926.21       0.18516    
     72     (1,2830)              138.33       0.0000       0.0000       138.08       927.94       0.25182    
     73     (1,2827)              138.33       0.0000       0.0000       138.01       336.96       0.32122    
     74     (1,2829)              138.33       0.0000       0.0000       138.05       585.79       0.27800    
     75     (1,2828)              138.33       0.0000       0.0000       138.00       910.66       0.33085    
     76     (1,2825)              138.33       0.0000       0.0000       137.93       910.66       0.39541    
     77     (1,2824)              138.33       0.0000       0.0000       137.87       321.41       0.46024    
     78     (1,2895)              138.33       0.0000       0.0000       137.92       589.25       0.40857    
     79     (1,2892)              138.33       0.0000       0.0000       137.85       900.29       0.48272    
     80     (1,2891)              138.33       0.0000       0.0000       137.80       927.94       0.52782    
     81     (1,2888)              138.33       0.0000       0.0000       137.73       872.64       0.59751    
     82     (1,2887)              138.33       0.0000       0.0000       137.69       1164.7       0.64105    
     83     (1,2884)              138.33       0.0000       0.0000       137.64       190.08       0.69473    
     84     (1,2819)              138.33       0.0000       0.0000       137.58       1031.6       0.75069    
     85     (1,2818)              138.24       0.0000       0.0000       137.53       190.08       0.70676    
     86     (1,2816)              138.24       0.0000       0.0000       137.49       1031.6       0.75023    
     87     (1,2813)              137.98       0.0000       0.0000       137.42       190.08       0.55512    
     88     (1,2739)              137.98       0.0000       0.0000       137.37       1031.6       0.61277    
     89     (1,2738)              137.56       0.0000       0.0000       137.32       190.08       0.23759    
     90     (1,2736)              137.56       0.0000       0.0000       137.27       1031.6       0.28908    
     91     (1,2733)              137.21       0.0000       0.0000       137.21       190.08       2.47303E-04
     92     (1,2667)              137.21       0.0000       0.0000       137.14       1031.6       6.77367E-02
     93     (1,2666)              137.20       0.0000       0.0000       137.09       190.08       0.11063    
     94     (1,2664)              137.11       0.0000       0.0000       137.02       1099.0       8.54830E-02
     95     (1,2600)              136.90       1.79828E-03  2.0000       136.92       421.63      -2.29753E-02
     96     (1,2597)              136.64       7.97727E-03  2.0000       136.79       644.54      -0.14995    
     97     (1,2595)              136.64       1.41593E-02  2.0000       136.74       981.50      -9.09057E-02
     98     (1,2520)              136.65       1.71939E-02  2.0000       136.74       297.22      -8.79537E-02
     99     (1,2519)              136.65       1.87780E-02  2.0000       136.70       803.52      -4.96292E-02
    100     (1,2517)              136.65       2.03754E-02  2.0000       136.68       983.23      -3.10876E-02
    101     (1,2436)              136.65       2.13001E-02  2.0000       136.66       1054.1      -1.13320E-02
    102     (1,2434)              136.65       2.14728E-02  2.0000       136.65       632.45       6.11292E-03
    103     (1,2435)              136.65       2.16819E-02  2.0000       136.66       1263.2      -1.08527E-02
    104     (1,2438)              136.65       2.23694E-02  2.0000       136.71       336.96      -5.66442E-02
    105     (1,2344)              136.65       2.30117E-02  2.0000       136.67       910.66      -1.33609E-02
    106     (1,2342)              136.65       2.30737E-02  2.0000       136.64       615.17       1.48228E-02
    107     (1,2343)              136.65       2.31344E-02  2.0000       136.68       457.92      -2.64377E-02
    108     (1,2251)              136.62       2.32600E-02  2.0000       136.62       1016.1       5.80678E-03
    109     (1,2249)              136.51       2.36410E-02  2.0000       136.54       864.00      -2.87593E-02
    110     (1,2183)              136.39       2.52753E-02  2.0000       136.45       934.85      -6.28534E-02
    111     (1,2181)              136.33       2.75213E-02  2.0000       136.40       864.00      -7.19110E-02
    112     (1,2114)              136.33       2.92545E-02  2.0000       136.37       872.64      -4.10199E-02
    113     (1,2112)              136.33       3.02456E-02  2.0000       136.36       867.46      -2.53384E-02
    114     (1,2044)              136.33       3.06199E-02  2.0000       136.33       430.27      -3.88775E-04
    115     (1,2043)              136.33       3.02677E-02  2.0000       136.29       546.05       3.84885E-02
    116     (1,2041)              136.31       2.91294E-02  2.0000       136.26       1021.2       4.43170E-02
    117     (1,1972)              136.31       2.80130E-02  2.0000       136.19       148.61       0.12175    
    118     (1,1969)              136.08       2.80828E-02  2.0000       136.10       943.49      -2.33255E-02
    119     (1,1967)              136.08       2.82359E-02  2.0000       136.05       508.03       2.63876E-02
    120     (1,1966)              136.01       2.79583E-02  2.0000       136.00       565.06       3.84605E-03
    121     (1,1893)              135.93       2.79306E-02  2.0000       135.93       855.36      -7.28766E-04
    122     (1,1894)              135.93       2.81055E-02  2.0000       135.97       200.45      -4.57523E-02
    123     (1,1892)              135.93       2.79228E-02  2.0000       135.91       888.19       2.18402E-02
    124     (1,1895)              135.92       2.78754E-02  2.0000       135.94       888.19      -1.88586E-02
    125     (1,1896)              135.92       2.90187E-02  2.0000       135.98       739.58      -6.48101E-02
    126     (1,1819)              135.92       2.97868E-02  2.0000       135.90       205.63       1.70580E-02
    127     (1,1822)              135.91       3.04293E-02  2.0000       135.96       924.48      -4.46342E-02
    128     (1,1820)              135.67       3.34360E-02  2.0000       135.83       907.20      -0.15704    
    129     (1,1745)              135.68       3.75968E-02  2.0000       135.79       1152.6      -0.11319    
    130     (1,1742)              135.60       4.09012E-02  2.0000       135.71       888.19      -0.11398    
    131     (1,1741)              135.60       4.31431E-02  2.0000       135.67       926.21      -6.83268E-02
    132     (1,1738)              135.52       4.51803E-02  2.0000       135.62       910.66      -0.10020    
    133     (1,1737)              135.52       4.68424E-02  2.0000       135.61       433.73      -8.83716E-02
    134     (1,1735)              135.49       4.79645E-02  2.0000       135.55       860.54      -5.91539E-02
    135     (1,1732)              135.49       4.87246E-02  2.0000       135.53       229.82      -4.49812E-02
    136     (1,1653)              135.43       4.94000E-02  2.0000       135.47       993.60      -4.49060E-02
    137     (1,1651)              135.41       5.03993E-02  2.0000       135.45       1054.1      -3.56912E-02
    138     (1,1654)              135.41       5.14409E-02  2.0000       135.47       870.91      -5.65569E-02
    139     (1,1655)              135.37       5.33451E-02  2.0000       135.49       974.59      -0.11556    
    140     (1,1658)              135.38       5.52749E-02  2.0000       135.58       273.02      -0.20296    
    141     (1,1548)              135.38       5.74912E-02  2.0000       135.54       903.74      -0.15761    
    142     (1,1546)              135.38       6.02166E-02  2.0000       135.57       571.97      -0.18870    
    143     (1,1543)              135.38       6.22786E-02  2.0000       135.50       746.50      -0.11600    
    144     (1,1453)              135.38       6.38048E-02  2.0000       135.56       342.14      -0.17591    
    145     (1,1452)              135.39       6.54204E-02  2.0000       135.49       914.11      -0.10695    
    146     (1,1449)              135.39       6.71436E-02  2.0000       135.47       914.11      -8.05054E-02
    147     (1,1448)              135.39       6.81114E-02  2.0000       135.47       302.40      -7.91999E-02
    148     (1,1538)              135.35       6.88309E-02  2.0000       135.42       668.74      -7.35190E-02
    149     (1,1535)              135.35       6.97925E-02  2.0000       135.40       969.41      -5.09060E-02
    150     (1,1537)              135.33       7.07550E-02  2.0000       135.38       955.58      -5.24907E-02
    151     (1,1647)              135.33       7.16824E-02  2.0000       135.38       910.66      -5.11641E-02
    152     (1,1649)              135.33       7.27268E-02  2.0000       135.40       931.39      -6.80275E-02
    153     (1,1648)              135.33       7.37202E-02  2.0000       135.38       896.83      -4.70564E-02
    154     (1,1645)              135.28       7.45974E-02  2.0000       135.34       940.03      -5.51065E-02
    155     (1,1644)              135.21       7.56589E-02  2.0000       135.30       648.00      -9.71553E-02
    156     (1,1642)              135.14       7.68144E-02  2.0000       135.29       421.63      -0.14983    
    157     (1,1639)              135.14       7.82685E-02  2.0000       135.24       933.12      -0.10436    
    158     (1,1638)              135.14       7.95154E-02  2.0000       135.24       400.90      -0.10445    
    159     (1,1640)              135.14       8.04380E-02  2.0000       135.25       587.52      -0.10571    
    160     (1,1637)              135.14       8.16093E-02  2.0000       135.22       910.66      -7.80309E-02
    161     (1,1636)              135.14       8.27508E-02  2.0000       135.21       872.64      -6.86896E-02
    162     (1,1633)              135.14       8.36752E-02  2.0000       135.20       865.73      -5.43313E-02
    163     (1,1632)              135.13       8.44686E-02  2.0000       135.19       870.91      -5.21340E-02
    164     (1,1629)              135.14       8.51198E-02  2.0000       135.17       874.37      -3.53551E-02
    165     (1,1628)              135.14       8.55400E-02  2.0000       135.16       865.73      -2.13969E-02
    166     (1,1625)              135.09       8.59518E-02  2.0000       135.12       870.91      -3.45516E-02
    167     (1,1624)              135.06       8.64996E-02  2.0000       135.10       879.55      -3.95956E-02
    168     (1,1621)              135.06       8.69416E-02  2.0000       135.08       881.28      -2.01425E-02
    169     (1,1620)              135.06       8.71501E-02  2.0000       135.07       900.29      -7.89610E-03
    170     (1,1617)              135.06       8.71495E-02  2.0000       135.04       487.30       1.47382E-02
    171     (1,1615)              134.99       8.72135E-02  2.0000       135.02       461.38      -3.21223E-02
    172     (1,1614)              134.99       8.74190E-02  2.0000       135.00       946.94      -1.02836E-02
    173     (1,1611)              134.99       8.74310E-02  2.0000       134.97       589.25       1.41074E-02
    174     (1,1525)              134.98       8.72847E-02  2.0000       134.95       406.08       2.25848E-02
    175     (1,1524)              134.86       8.75028E-02  2.0000       134.89       965.95      -3.64863E-02
    176     (1,1521)              134.86       8.78670E-02  2.0000       134.87       577.15      -1.45468E-02
    177     (1,1519)              134.86       8.79834E-02  2.0000       134.87       428.54      -1.30113E-02
    178     (1,1518)              134.86       8.79954E-02  2.0000       134.85       905.47       4.56118E-03
    179     (1,1515)              134.86       8.78568E-02  2.0000       134.83       539.14       2.32172E-02
    180     (1,1431)              134.86       8.75512E-02  2.0000       134.83       864.00       2.79002E-02
    181     (1,1429)              134.86       8.70616E-02  2.0000       134.81       774.14       4.44355E-02
    182     (1,1432)              134.82       8.68098E-02  2.0000       134.83       502.85      -8.73505E-03
    183     (1,1353)              134.81       8.68223E-02  2.0000       134.80       907.20       3.20406E-03
    184     (1,1351)              134.81       8.66949E-02  2.0000       134.79       883.01       1.38840E-02
    185     (1,1274)              134.81       8.63038E-02  2.0000       134.77       902.02       3.78994E-02
    186     (1,1272)              134.80       8.54854E-02  2.0000       134.73       900.29       6.94812E-02
    187     (1,1194)              134.47       8.57339E-02  2.0000       134.56       927.94      -9.89943E-02
    188     (1,1192)              134.36       8.74943E-02  2.0000       134.49       853.63      -0.13750    
    189     (1,1189)              134.36       8.85920E-02  2.0000       134.48       122.69      -0.11843    
    190     (1,1111)              134.26       8.97506E-02  2.0000       134.39       991.87      -0.12691    
    191     (1,1109)              134.26       9.14395E-02  2.0000       134.39       628.99      -0.12871    
    192     (1,1108)              134.26       9.24104E-02  2.0000       134.37       361.15      -0.10830    
    193     (1,1030)              134.26       9.33382E-02  2.0000       134.34       979.78      -7.79955E-02
    194     (1,1028)              134.26       9.45409E-02  2.0000       134.35       889.92      -8.36874E-02
    195     (1,950)               134.27       9.52960E-02  2.0000       134.38       186.62      -0.11208    
    196     (1,947)               134.17       9.62081E-02  2.0000       134.28       813.89      -0.11672    
    197     (1,945)               134.17       9.75205E-02  2.0000       134.30       546.05      -0.13382    
    198     (1,944)               134.17       9.86761E-02  2.0000       134.26       848.45      -8.97580E-02
    199     (1,866)               134.17       9.95899E-02  2.0000       134.29       354.24      -0.12051    
    200     (1,863)               134.17       0.10038      2.0000       134.25       803.52      -7.60092E-02
    201     (1,861)               134.17       0.10127      2.0000       134.26       608.26      -9.18827E-02
    202     (1,860)               134.17       0.10196      2.0000       134.24       521.86      -6.78827E-02
    203     (1,782)               134.17       0.10267      2.0000       134.24       822.53      -7.12163E-02
    204     (1,779)               134.16       0.10324      2.0000       134.23       252.29      -6.77119E-02
    205     (1,777)               134.16       0.10388      2.0000       134.23       1130.1      -6.11280E-02
    206     (1,700)               134.16       0.10440      2.0000       134.26       12.096      -9.82472E-02
    207     (1,699)               134.16       0.10479      2.0000       134.21       1138.8      -4.50291E-02
    208     (1,697)               134.17       0.10526      2.0000       134.23       169.34      -6.95247E-02
    209     (1,694)               134.17       0.10551      2.0000       134.19       927.94      -2.44052E-02
    210     (1,618)               134.10       0.10598      2.0000       134.18       483.84      -8.47594E-02
    211     (1,617)               134.10       0.10650      2.0000       134.15       578.88      -5.14295E-02
    212     (1,615)               134.10       0.10702      2.0000       134.15       855.36      -4.82433E-02
    213     (1,612)               134.10       0.10739      2.0000       134.12       361.15      -2.54546E-02
    214     (1,537)               134.10       0.10750      2.0000       134.10       936.58      -6.80834E-03
    215     (1,535)               133.93       0.10815      2.0000       134.06       627.26      -0.13189    
    216     (1,534)               133.93       0.10943      2.0000       134.03       976.32      -9.59680E-02
    217     (1,531)               133.93       0.11011      2.0000       134.03       15.552      -0.10465    
    218     (1,457)               133.93       0.11065      2.0000       134.00       1042.0      -7.00454E-02
    219     (1,455)               133.93       0.11167      2.0000       134.00       1024.7      -6.86124E-02
    220     (1,382)               133.93       0.11245      2.0000       134.04       388.80      -0.10284    
    221     (1,381)               133.93       0.11315      2.0000       134.00       927.94      -6.33830E-02
    222     (1,378)               133.93       0.11385      2.0000       133.98       889.92      -4.71771E-02
    223     (1,377)               133.93       0.11440      2.0000       133.97       919.30      -3.97001E-02
    224     (1,375)               133.93       0.11473      2.0000       134.00       160.70      -6.12818E-02
    225     (1,372)               133.94       0.11505      2.0000       133.97       1038.5      -3.52361E-02
    226     (1,371)               133.94       0.11537      2.0000       133.97       326.59      -3.00249E-02
    227     (1,299)               133.94       0.11561      2.0000       133.97       701.57      -3.36821E-02
    228     (1,296)               133.94       0.11588      2.0000       133.95       907.20      -1.76349E-02
    229     (1,294)               133.94       0.11602      2.0000       133.97       119.23      -2.91575E-02
    230     (1,293)               133.94       0.11612      2.0000       133.95       921.02      -1.22722E-02
    231     (1,290)               133.94       0.11618      2.0000       133.93       884.74       2.94968E-03
    232     (1,289)               133.94       0.11607      2.0000       133.92       908.93       1.44629E-02
    233     (1,286)               133.94       0.11594      2.0000       133.89       114.05       4.29834E-02
    234     (1,250)               133.94       0.11568      2.0000       133.89       789.70       4.14329E-02
    235     (1,249)               133.93       0.11494      2.0000       133.86       979.78       7.51882E-02
    236     (1,246)               133.70       0.11454      2.0000       133.75       387.07      -4.14029E-02
    237     (1,244)               133.62       0.11493      2.0000       133.69       644.54      -6.21699E-02
    238     (1,243)               133.40       0.11621      2.0000       133.58       786.24      -0.18280    
    239     (1,209)               133.40       0.11769      2.0000       133.58       402.62      -0.17750    
    240     (1,206)               133.40       0.11887      2.0000       133.52       819.07      -0.12357    
    241     (1,204)               133.40       0.11993      2.0000       133.54       402.62      -0.13753    
    242     (1,203)               133.40       0.12088      2.0000       133.50       819.07      -0.10344    
    243     (1,171)               133.40       0.12178      2.0000       133.52       399.17      -0.12293    
    244     (1,168)               133.40       0.12270      2.0000       133.49       1017.8      -8.69359E-02
    245     (1,166)               133.40       0.12334      2.0000       133.53       57.024      -0.13000    
    246     (1,165)               133.40       0.12400      2.0000       133.48       1164.7      -7.97411E-02
    247     (1,135)               133.40       0.12467      2.0000       133.53       57.024      -0.12804    
    248     (1,132)               133.41       0.12528      2.0000       133.48       1164.7      -7.39181E-02
    249     (1,130)               133.41       0.12589      2.0000       133.53       57.024      -0.11933    
    250     (1,129)               133.41       0.12647      2.0000       133.48       1164.7      -7.03147E-02
    251     (1,101)               133.41       0.12705      2.0000       133.52       57.024      -0.11769    
    252     (1,98)                133.41       0.12761      2.0000       133.48       1164.7      -6.74490E-02
    253     (1,96)                133.41       0.12816      2.0000       133.52       57.024      -0.11170    
    254     (1,95)                133.41       0.12869      2.0000       133.47       1164.7      -6.48544E-02
    255     (1,69)                133.41       0.12922      2.0000       133.52       57.024      -0.11183    
    256     (1,66)                133.41       0.12972      2.0000       133.47       1178.5      -6.11142E-02
    257     (1,65)                133.41       0.13021      2.0000       133.49       48.384      -7.69588E-02
    258     (1,63)                133.40       0.13066      2.0000       133.46       1061.0      -6.39430E-02
    259     (1,60)                133.40       0.13121      2.0000       133.46       288.58      -6.09355E-02
    260     (1,36)                133.28       0.13209      2.0000       133.41       934.85      -0.12951    
    261     (1,35)                133.28       0.13319      2.0000       133.43       357.70      -0.14434    
    262     (1,33)                133.28       0.13413      2.0000       133.42       708.48      -0.13875    
    263     (1,30)                133.29       0.13533      2.0000       133.43       634.18      -0.14785    
    264     (1,8)                 133.29       0.13661      2.0000       133.47       589.25      -0.18743    
    265     (1,7)                 133.29       0.13810      2.0000       133.50       634.18      -0.20699    
    266     (1,5)                 133.29       0.13905      2.0000       133.62       69.120      -0.32940    
 -------------------------------------------------------------------------------------------------------------



 SFR PACKAGE - SUMMARY OF FLOWS FOR EACH CONTROL VOLUME   PERIOD      1   STEP        1
 ------------------------------------------------------------------------------------------------------------------------------------------------------------------------------
                                                                                                                                                                     PERCENT   
   NUMBER   CELLID                  INFLOW      OUTFLOW        GWF        RAINFALL   EVAPORATION     RUNOFF     EXT INFLOW  EXT OUTFLOW    STORAGE      IN - OUT    DIFFERENCE 
 ------------------------------------------------------------------------------------------------------------------------------------------------------------------------------
     1      (1,2565)              0.0000       0.0000       0.0000       0.0000       0.0000       0.0000       0.0000       0.0000       0.0000       0.0000       0.0000     
     2      (1,2563)              0.0000       0.0000       0.0000       0.0000       0.0000       0.0000       0.0000       0.0000       0.0000       0.0000       0.0000     
     3      (1,2561)              0.0000       0.0000       0.0000       0.0000       0.0000       0.0000       0.0000       0.0000       0.0000       0.0000       0.0000     
     4      (1,2560)              0.0000       0.0000       0.0000       0.0000       0.0000       0.0000       0.0000       0.0000       0.0000       0.0000       0.0000     
     5      (1,2557)              0.0000       0.0000       0.0000       0.0000       0.0000       0.0000       0.0000       0.0000       0.0000       0.0000       0.0000     
     6      (1,2485)              0.0000       0.0000       0.0000       0.0000       0.0000       0.0000       0.0000       0.0000       0.0000       0.0000       0.0000     
     7      (1,2484)              0.0000       0.0000       0.0000       0.0000       0.0000       0.0000       0.0000       0.0000       0.0000       0.0000       0.0000     
     8      (1,2481)              0.0000       0.0000       0.0000       0.0000       0.0000       0.0000       0.0000       0.0000       0.0000       0.0000       0.0000     
     9      (1,2479)              0.0000       0.0000       0.0000       0.0000       0.0000       0.0000       0.0000       0.0000       0.0000       0.0000       0.0000     
     10     (1,2478)              0.0000       0.0000       0.0000       0.0000       0.0000       0.0000       0.0000       0.0000       0.0000       0.0000       0.0000     
     11     (1,2399)              0.0000       0.0000       0.0000       0.0000       0.0000       0.0000       0.0000       0.0000       0.0000       0.0000       0.0000     
     12     (1,2396)              0.0000       0.0000       0.0000       0.0000       0.0000       0.0000       0.0000       0.0000       0.0000       0.0000       0.0000     
     13     (1,2394)              0.0000       0.0000       0.0000       0.0000       0.0000       0.0000       0.0000       0.0000       0.0000       0.0000       0.0000     
     14     (1,2393)              0.0000       0.0000       0.0000       0.0000       0.0000       0.0000       0.0000       0.0000       0.0000       0.0000       0.0000     
     15     (1,2304)              0.0000       0.0000       0.0000       0.0000       0.0000       0.0000       0.0000       0.0000       0.0000       0.0000       0.0000     
     16     (1,2301)              0.0000       0.0000       0.0000       0.0000       0.0000       0.0000       0.0000       0.0000       0.0000       0.0000       0.0000     
     17     (1,2300)              0.0000       0.0000       0.0000       0.0000       0.0000       0.0000       0.0000       0.0000       0.0000       0.0000       0.0000     
     18     (1,2389)              0.0000       0.0000       0.0000       0.0000       0.0000       0.0000       0.0000       0.0000       0.0000       0.0000       0.0000     
     19     (1,2386)              0.0000       0.0000       0.0000       0.0000       0.0000       0.0000       0.0000       0.0000       0.0000       0.0000       0.0000     
     20     (1,2385)              0.0000       0.0000       0.0000       0.0000       0.0000       0.0000       0.0000       0.0000       0.0000       0.0000       0.0000     
     21     (1,2296)              0.0000       0.0000       0.0000       0.0000       0.0000       0.0000       0.0000       0.0000       0.0000       0.0000       0.0000     
     22     (1,2293)              0.0000       0.0000       0.0000       0.0000       0.0000       0.0000       0.0000       0.0000       0.0000       0.0000       0.0000     
     23     (1,2292)              0.0000       0.0000       0.0000       0.0000       0.0000       0.0000       0.0000       0.0000       0.0000       0.0000       0.0000     
     24     (1,2289)              0.0000       0.0000       0.0000       0.0000       0.0000       0.0000       0.0000       0.0000       0.0000       0.0000       0.0000     
     25     (1,2288)              0.0000       0.0000       0.0000       0.0000       0.0000       0.0000       0.0000       0.0000       0.0000       0.0000       0.0000     
     26     (1,2286)              0.0000       0.0000       0.0000       0.0000       0.0000       0.0000       0.0000       0.0000       0.0000       0.0000       0.0000     
     27     (1,2283)              0.0000       0.0000       0.0000       0.0000       0.0000       0.0000       0.0000       0.0000       0.0000       0.0000       0.0000     
     28     (1,2282)              0.0000       0.0000       0.0000       0.0000       0.0000       0.0000       0.0000       0.0000       0.0000       0.0000       0.0000     
     29     (1,2279)              0.0000       0.0000       0.0000       0.0000       0.0000       0.0000       0.0000       0.0000       0.0000       0.0000       0.0000     
     30     (1,2278)              0.0000       0.0000       0.0000       0.0000       0.0000       0.0000       0.0000       0.0000       0.0000       0.0000       0.0000     
     31     (1,2275)              0.0000       0.0000       0.0000       0.0000       0.0000       0.0000       0.0000       0.0000       0.0000       0.0000       0.0000     
     32     (1,2277)              0.0000       0.0000       0.0000       0.0000       0.0000       0.0000       0.0000       0.0000       0.0000       0.0000       0.0000     
     33     (1,2276)              0.0000       0.0000       0.0000       0.0000       0.0000       0.0000       0.0000       0.0000       0.0000       0.0000       0.0000     
     34     (1,2273)              0.0000       0.0000       0.0000       0.0000       0.0000       0.0000       0.0000       0.0000       0.0000       0.0000       0.0000     
     35     (1,2272)              0.0000       0.0000       0.0000       0.0000       0.0000       0.0000       0.0000       0.0000       0.0000       0.0000       0.0000     
     36     (1,2376)              0.0000       0.0000       0.0000       0.0000       0.0000       0.0000       0.0000       0.0000       0.0000       0.0000       0.0000     
     37     (1,2373)              0.0000       0.0000       0.0000       0.0000       0.0000       0.0000       0.0000       0.0000       0.0000       0.0000       0.0000     
     38     (1,2372)              0.0000       0.0000       0.0000       0.0000       0.0000       0.0000       0.0000       0.0000       0.0000       0.0000       0.0000     
     39     (1,2369)              0.0000       0.0000       0.0000       0.0000       0.0000       0.0000       0.0000       0.0000       0.0000       0.0000       0.0000     
     40     (1,2368)              0.0000       0.0000       0.0000       0.0000       0.0000       0.0000       0.0000       0.0000       0.0000       0.0000       0.0000     
     41     (1,2370)              0.0000       0.0000       0.0000       0.0000       0.0000       0.0000       0.0000       0.0000       0.0000       0.0000       0.0000     
     42     (1,2367)              0.0000       0.0000       0.0000       0.0000       0.0000       0.0000       0.0000       0.0000       0.0000       0.0000       0.0000     
     43     (1,2366)              0.0000       0.0000       0.0000       0.0000       0.0000       0.0000       0.0000       0.0000       0.0000       0.0000       0.0000     
     44     (1,2363)              0.0000       0.0000       0.0000       0.0000       0.0000       0.0000       0.0000       0.0000       0.0000       0.0000       0.0000     
     45     (1,2362)              0.0000       0.0000       0.0000       0.0000       0.0000       0.0000       0.0000       0.0000       0.0000       0.0000       0.0000     
     46     (1,2462)              0.0000       0.0000       0.0000       0.0000       0.0000       0.0000       0.0000       0.0000       0.0000       0.0000       0.0000     
     47     (1,2459)              0.0000       0.0000       0.0000       0.0000       0.0000       0.0000       0.0000       0.0000       0.0000       0.0000       0.0000     
     48     (1,2458)              0.0000       0.0000       0.0000       0.0000       0.0000       0.0000       0.0000       0.0000       0.0000       0.0000       0.0000     
     49     (1,2460)              0.0000       0.0000       0.0000       0.0000       0.0000       0.0000       0.0000       0.0000       0.0000       0.0000       0.0000     
     50     (1,2457)              0.0000       0.0000       0.0000       0.0000       0.0000       0.0000       0.0000       0.0000       0.0000       0.0000       0.0000     
     51     (1,2538)              0.0000       0.0000       0.0000       0.0000       0.0000       0.0000       0.0000       0.0000       0.0000       0.0000       0.0000     
     52     (1,2537)              0.0000       0.0000       0.0000       0.0000       0.0000       0.0000       0.0000       0.0000       0.0000       0.0000       0.0000     
     53     (1,2539)              0.0000       0.0000       0.0000       0.0000       0.0000       0.0000       0.0000       0.0000       0.0000       0.0000       0.0000     
     54     (1,2536)              0.0000       0.0000       0.0000       0.0000       0.0000       0.0000       0.0000       0.0000       0.0000       0.0000       0.0000     
     55     (1,2614)              0.0000       0.0000       0.0000       0.0000       0.0000       0.0000       0.0000       0.0000       0.0000       0.0000       0.0000     
     56     (1,2613)              0.0000       0.0000       0.0000       0.0000       0.0000       0.0000       0.0000       0.0000       0.0000       0.0000       0.0000     
     57     (1,2615)              0.0000       0.0000       0.0000       0.0000       0.0000       0.0000       0.0000       0.0000       0.0000       0.0000       0.0000     
     58     (1,2682)              0.0000       0.0000       0.0000       0.0000       0.0000       0.0000       0.0000       0.0000       0.0000       0.0000       0.0000     
     59     (1,2684)              0.0000       0.0000       0.0000       0.0000       0.0000       0.0000       0.0000       0.0000       0.0000       0.0000       0.0000     
     60     (1,2681)              0.0000       0.0000       0.0000       0.0000       0.0000       0.0000       0.0000       0.0000       0.0000       0.0000       0.0000     
     61     (1,2762)              0.0000       0.0000       0.0000       0.0000       0.0000       0.0000       0.0000       0.0000       0.0000       0.0000       0.0000     
     62     (1,2761)              0.0000       0.0000       0.0000       0.0000       0.0000       0.0000       0.0000       0.0000       0.0000       0.0000       0.0000     
     63     (1,2763)              0.0000       0.0000       0.0000       0.0000       0.0000       0.0000       0.0000       0.0000       0.0000       0.0000       0.0000     
     64     (1,2760)              0.0000       0.0000       0.0000       0.0000       0.0000       0.0000       0.0000       0.0000       0.0000       0.0000       0.0000     
     65     (1,2759)              0.0000       0.0000       0.0000       0.0000       0.0000       0.0000       0.0000       0.0000       0.0000       0.0000       0.0000     
     66     (1,2756)              0.0000       0.0000       0.0000       0.0000       0.0000       0.0000       0.0000       0.0000       0.0000       0.0000       0.0000     
     67     (1,2755)              0.0000       0.0000       0.0000       0.0000       0.0000       0.0000       0.0000       0.0000       0.0000       0.0000       0.0000     
     68     (1,2752)              0.0000       0.0000       0.0000       0.0000       0.0000       0.0000       0.0000       0.0000       0.0000       0.0000       0.0000     
     69     (1,2751)              0.0000       0.0000       0.0000       0.0000       0.0000       0.0000       0.0000       0.0000       0.0000       0.0000       0.0000     
     70     (1,2748)              0.0000       0.0000       0.0000       0.0000       0.0000       0.0000       0.0000       0.0000       0.0000       0.0000       0.0000     
     71     (1,2831)              0.0000       0.0000       0.0000       0.0000       0.0000       0.0000       0.0000       0.0000       0.0000       0.0000       0.0000     
     72     (1,2830)              0.0000       0.0000       0.0000       0.0000       0.0000       0.0000       0.0000       0.0000       0.0000       0.0000       0.0000     
     73     (1,2827)              0.0000       0.0000       0.0000       0.0000       0.0000       0.0000       0.0000       0.0000       0.0000       0.0000       0.0000     
     74     (1,2829)              0.0000       0.0000       0.0000       0.0000       0.0000       0.0000       0.0000       0.0000       0.0000       0.0000       0.0000     
     75     (1,2828)              0.0000       0.0000       0.0000       0.0000       0.0000       0.0000       0.0000       0.0000       0.0000       0.0000       0.0000     
     76     (1,2825)              0.0000       0.0000       0.0000       0.0000       0.0000       0.0000       0.0000       0.0000       0.0000       0.0000       0.0000     
     77     (1,2824)              0.0000       0.0000       0.0000       0.0000       0.0000       0.0000       0.0000       0.0000       0.0000       0.0000       0.0000     
     78     (1,2895)              0.0000       0.0000       0.0000       0.0000       0.0000       0.0000       0.0000       0.0000       0.0000       0.0000       0.0000     
     79     (1,2892)              0.0000       0.0000       0.0000       0.0000       0.0000       0.0000       0.0000       0.0000       0.0000       0.0000       0.0000     
     80     (1,2891)              0.0000       0.0000       0.0000       0.0000       0.0000       0.0000       0.0000       0.0000       0.0000       0.0000       0.0000     
     81     (1,2888)              0.0000       0.0000       0.0000       0.0000       0.0000       0.0000       0.0000       0.0000       0.0000       0.0000       0.0000     
     82     (1,2887)              0.0000       0.0000       0.0000       0.0000       0.0000       0.0000       0.0000       0.0000       0.0000       0.0000       0.0000     
     83     (1,2884)              0.0000       0.0000       0.0000       0.0000       0.0000       0.0000       0.0000       0.0000       0.0000       0.0000       0.0000     
     84     (1,2819)              0.0000       0.0000       0.0000       0.0000       0.0000       0.0000       0.0000       0.0000       0.0000       0.0000       0.0000     
     85     (1,2818)              0.0000       0.0000       0.0000       0.0000       0.0000       0.0000       0.0000       0.0000       0.0000       0.0000       0.0000     
     86     (1,2816)              0.0000       0.0000       0.0000       0.0000       0.0000       0.0000       0.0000       0.0000       0.0000       0.0000       0.0000     
     87     (1,2813)              0.0000       0.0000       0.0000       0.0000       0.0000       0.0000       0.0000       0.0000       0.0000       0.0000       0.0000     
     88     (1,2739)              0.0000       0.0000       0.0000       0.0000       0.0000       0.0000       0.0000       0.0000       0.0000       0.0000       0.0000     
     89     (1,2738)              0.0000       0.0000       0.0000       0.0000       0.0000       0.0000       0.0000       0.0000       0.0000       0.0000       0.0000     
     90     (1,2736)              0.0000       0.0000       0.0000       0.0000       0.0000       0.0000       0.0000       0.0000       0.0000       0.0000       0.0000     
     91     (1,2733)              0.0000       0.0000       0.0000       0.0000       0.0000       0.0000       0.0000       0.0000       0.0000       0.0000       0.0000     
     92     (1,2667)              0.0000       0.0000       0.0000       0.0000       0.0000       0.0000       0.0000       0.0000       0.0000       0.0000       0.0000     
     93     (1,2666)              0.0000       0.0000       0.0000       0.0000       0.0000       0.0000       0.0000       0.0000       0.0000       0.0000       0.0000     
     94     (1,2664)              0.0000       0.0000       0.0000       0.0000       0.0000       0.0000       0.0000       0.0000       0.0000       0.0000       0.0000     
     95     (1,2600)              0.0000      -9.6875       9.6875       0.0000       0.0000       0.0000       0.0000       0.0000       0.0000       0.0000       0.0000     
     96     (1,2597)              9.6875      -106.34       96.648       0.0000       0.0000       0.0000       0.0000       0.0000       0.0000       0.0000       0.0000     
     97     (1,2595)              106.34      -195.56       89.225       0.0000       0.0000       0.0000       0.0000       0.0000       0.0000       0.0000       0.0000     
     98     (1,2520)              195.56      -221.70       26.141       0.0000       0.0000       0.0000       0.0000       0.0000       0.0000       0.0000       0.0000     
     99     (1,2519)              221.70      -261.58       39.879       0.0000       0.0000       0.0000       0.0000       0.0000       0.0000       0.0000       0.0000     
    100     (1,2517)              261.58      -292.15       30.567       0.0000       0.0000       0.0000       0.0000       0.0000       0.0000       0.0000       0.0000     
    101     (1,2436)              292.15      -304.09       11.945       0.0000       0.0000       0.0000       0.0000       0.0000       0.0000       0.0000       0.0000     
    102     (1,2434)              304.09      -300.23      -3.8658       0.0000       0.0000       0.0000       0.0000       0.0000       0.0000       0.0000       0.0000     
    103     (1,2435)              300.23      -313.94       13.709       0.0000       0.0000       0.0000       0.0000       0.0000       0.0000       0.0000       0.0000     
    104     (1,2438)              313.94      -333.02       19.087       0.0000       0.0000       0.0000       0.0000       0.0000       0.0000       0.0000       0.0000     
    105     (1,2344)              333.02      -345.19       12.167       0.0000       0.0000       0.0000       0.0000       0.0000       0.0000       0.0000       0.0000     
    106     (1,2342)              345.19      -336.07      -9.1183       0.0000       0.0000       0.0000       0.0000       0.0000       0.0000       0.0000       0.0000     
    107     (1,2343)              336.07      -348.18       12.106       0.0000       0.0000       0.0000       0.0000       0.0000       0.0000       0.0000       0.0000     
    108     (1,2251)              348.18      -342.28      -5.8998       0.0000       0.0000       0.0000       0.0000       0.0000       0.0000       0.0000       0.0000     
    109     (1,2249)              342.28      -367.13       24.848       0.0000       0.0000       0.0000       0.0000       0.0000       0.0000       0.0000       0.0000     
    110     (1,2183)              367.13      -425.89       58.759       0.0000       0.0000       0.0000       0.0000       0.0000       0.0000       0.0000       0.0000     
    111     (1,2181)              425.89      -488.02       62.131       0.0000       0.0000       0.0000       0.0000       0.0000       0.0000       0.0000       0.0000     
    112     (1,2114)              488.02      -523.81       35.796       0.0000       0.0000       0.0000       0.0000       0.0000       0.0000       0.0000       0.0000     
    113     (1,2112)              523.81      -545.79       21.980       0.0000       0.0000       0.0000       0.0000       0.0000       0.0000       0.0000       0.0000     
    114     (1,2044)              545.79      -545.96       0.16741      0.0000       0.0000       0.0000       0.0000       0.0000       0.0000       0.0000       0.0000     
    115     (1,2043)              545.96      -524.94      -21.016       0.0000       0.0000       0.0000       0.0000       0.0000       0.0000       0.0000       0.0000     
    116     (1,2041)              524.94      -479.69      -45.258       0.0000       0.0000       0.0000       0.0000       0.0000       0.0000       0.0000       0.0000     
    117     (1,1972)              479.69      -461.59      -18.092       0.0000       0.0000       0.0000       0.0000       0.0000       0.0000       0.0000       0.0000     
    118     (1,1969)              461.59      -483.60       22.008       0.0000       0.0000       0.0000       0.0000       0.0000       0.0000       0.0000       0.0000     
    119     (1,1967)              483.60      -470.20      -13.406       0.0000       0.0000       0.0000       0.0000       0.0000       0.0000       0.0000       0.0000     
    120     (1,1966)              470.20      -468.02      -2.1730       0.0000       0.0000       0.0000       0.0000       0.0000       0.0000       0.0000       0.0000     
    121     (1,1893)              468.02      -468.65       0.62370      0.0000       0.0000       0.0000       0.0000       0.0000       0.0000       0.0000       0.0000     
    122     (1,1894)              468.65      -477.82       9.1710       0.0000       0.0000       0.0000       0.0000       0.0000       0.0000       0.0000       0.0000     
    123     (1,1892)              477.82      -458.42      -19.398       0.0000       0.0000       0.0000       0.0000       0.0000       0.0000       0.0000       0.0000     
    124     (1,1895)              458.42      -475.17       16.750       0.0000       0.0000       0.0000       0.0000       0.0000       0.0000       0.0000       0.0000     
    125     (1,1896)              475.17      -523.10       47.933       0.0000       0.0000       0.0000       0.0000       0.0000       0.0000       0.0000       0.0000     
    126     (1,1819)              523.10      -519.59      -3.5076       0.0000       0.0000       0.0000       0.0000       0.0000       0.0000       0.0000       0.0000     
    127     (1,1822)              519.59      -560.86       41.264       0.0000       0.0000       0.0000       0.0000       0.0000       0.0000       0.0000       0.0000     
    128     (1,1820)              560.86      -703.33       142.47       0.0000       0.0000       0.0000       0.0000       0.0000       0.0000       0.0000       0.0000     
    129     (1,1745)              703.33      -833.78       130.45       0.0000       0.0000       0.0000       0.0000       0.0000       0.0000       0.0000       0.0000     
    130     (1,1742)              833.78      -935.02       101.24       0.0000       0.0000       0.0000       0.0000       0.0000       0.0000       0.0000       0.0000     
    131     (1,1741)              935.02      -998.30       63.285       0.0000       0.0000       0.0000       0.0000       0.0000       0.0000       0.0000       0.0000     
    132     (1,1738)              998.30      -1089.6       91.250       0.0000       0.0000       0.0000       0.0000       0.0000       0.0000       0.0000       0.0000     
    133     (1,1737)              1089.6      -1127.9       38.329       0.0000       0.0000       0.0000       0.0000       0.0000       0.0000       0.0000       0.0000     
    134     (1,1735)              1127.9      -1178.8       50.905       0.0000       0.0000       0.0000       0.0000       0.0000       0.0000       0.0000       0.0000     
    135     (1,1732)              1178.8      -1189.1       10.338       0.0000       0.0000       0.0000       0.0000       0.0000       0.0000       0.0000       0.0000     
    136     (1,1653)              1189.1      -1233.7       44.619       0.0000       0.0000       0.0000       0.0000       0.0000       0.0000       0.0000       0.0000     
    137     (1,1651)              1233.7      -1271.4       37.622       0.0000       0.0000       0.0000       0.0000       0.0000       0.0000       0.0000       0.0000     
    138     (1,1654)              1271.4      -1320.6       49.256       0.0000       0.0000       0.0000       0.0000       0.0000       0.0000       0.0000       0.0000     
    139     (1,1655)              1320.6      -1433.2       112.62       0.0000       0.0000       0.0000       0.0000       0.0000       0.0000       0.0000       0.0000     
    140     (1,1658)              1433.2      -1488.7       55.414       0.0000       0.0000       0.0000       0.0000       0.0000       0.0000       0.0000       0.0000     
    141     (1,1548)              1488.7      -1631.1       142.44       0.0000       0.0000       0.0000       0.0000       0.0000       0.0000       0.0000       0.0000     
    142     (1,1546)              1631.1      -1739.0       107.93       0.0000       0.0000       0.0000       0.0000       0.0000       0.0000       0.0000       0.0000     
    143     (1,1543)              1739.0      -1825.6       86.595       0.0000       0.0000       0.0000       0.0000       0.0000       0.0000       0.0000       0.0000     
    144     (1,1453)              1825.6      -1885.8       60.187       0.0000       0.0000       0.0000       0.0000       0.0000       0.0000       0.0000       0.0000     
    145     (1,1452)              1885.8      -1983.6       97.761       0.0000       0.0000       0.0000       0.0000       0.0000       0.0000       0.0000       0.0000     
    146     (1,1449)              1983.6      -2057.2       73.591       0.0000       0.0000       0.0000       0.0000       0.0000       0.0000       0.0000       0.0000     
    147     (1,1448)              2057.2      -2081.1       23.950       0.0000       0.0000       0.0000       0.0000       0.0000       0.0000       0.0000       0.0000     
    148     (1,1538)              2081.1      -2130.3       49.165       0.0000       0.0000       0.0000       0.0000       0.0000       0.0000       0.0000       0.0000     
    149     (1,1535)              2130.3      -2179.6       49.349       0.0000       0.0000       0.0000       0.0000       0.0000       0.0000       0.0000       0.0000     
    150     (1,1537)              2179.6      -2229.8       50.160       0.0000       0.0000       0.0000       0.0000       0.0000       0.0000       0.0000       0.0000     
    151     (1,1647)              2229.8      -2276.4       46.593       0.0000       0.0000       0.0000       0.0000       0.0000       0.0000       0.0000       0.0000     
    152     (1,1649)              2276.4      -2339.7       63.361       0.0000       0.0000       0.0000       0.0000       0.0000       0.0000       0.0000       0.0000     
    153     (1,1648)              2339.7      -2381.9       42.202       0.0000       0.0000       0.0000       0.0000       0.0000       0.0000       0.0000       0.0000     
    154     (1,1645)              2381.9      -2433.7       51.802       0.0000       0.0000       0.0000       0.0000       0.0000       0.0000       0.0000       0.0000     
    155     (1,1644)              2433.7      -2496.7       62.957       0.0000       0.0000       0.0000       0.0000       0.0000       0.0000       0.0000       0.0000     
    156     (1,1642)              2496.7      -2559.9       63.172       0.0000       0.0000       0.0000       0.0000       0.0000       0.0000       0.0000       0.0000     
    157     (1,1639)              2559.9      -2657.3       97.376       0.0000       0.0000       0.0000       0.0000       0.0000       0.0000       0.0000       0.0000     
    158     (1,1638)              2657.3      -2699.1       41.875       0.0000       0.0000       0.0000       0.0000       0.0000       0.0000       0.0000       0.0000     
    159     (1,1640)              2699.1      -2761.2       62.107       0.0000       0.0000       0.0000       0.0000       0.0000       0.0000       0.0000       0.0000     
    160     (1,1637)              2761.2      -2832.3       71.060       0.0000       0.0000       0.0000       0.0000       0.0000       0.0000       0.0000       0.0000     
    161     (1,1636)              2832.3      -2892.2       59.942       0.0000       0.0000       0.0000       0.0000       0.0000       0.0000       0.0000       0.0000     
    162     (1,1633)              2892.2      -2939.3       47.037       0.0000       0.0000       0.0000       0.0000       0.0000       0.0000       0.0000       0.0000     
    163     (1,1632)              2939.3      -2984.7       45.405       0.0000       0.0000       0.0000       0.0000       0.0000       0.0000       0.0000       0.0000     
    164     (1,1629)              2984.7      -3015.6       30.914       0.0000       0.0000       0.0000       0.0000       0.0000       0.0000       0.0000       0.0000     
    165     (1,1628)              3015.6      -3034.1       18.525       0.0000       0.0000       0.0000       0.0000       0.0000       0.0000       0.0000       0.0000     
    166     (1,1625)              3034.1      -3064.2       30.092       0.0000       0.0000       0.0000       0.0000       0.0000       0.0000       0.0000       0.0000     
    167     (1,1624)              3064.2      -3099.0       34.827       0.0000       0.0000       0.0000       0.0000       0.0000       0.0000       0.0000       0.0000     
    168     (1,1621)              3099.0      -3116.8       17.752       0.0000       0.0000       0.0000       0.0000       0.0000       0.0000       0.0000       0.0000     
    169     (1,1620)              3116.8      -3123.9       7.1100       0.0000       0.0000       0.0000       0.0000       0.0000       0.0000       0.0000       0.0000     
    170     (1,1617)              3123.9      -3116.7      -7.1810       0.0000       0.0000       0.0000       0.0000       0.0000       0.0000       0.0000       0.0000     
    171     (1,1615)              3116.7      -3131.5       14.821       0.0000       0.0000       0.0000       0.0000       0.0000       0.0000       0.0000       0.0000     
    172     (1,1614)              3131.5      -3141.3       9.7393       0.0000       0.0000       0.0000       0.0000       0.0000       0.0000       0.0000       0.0000     
    173     (1,1611)              3141.3      -3133.0      -8.3116       0.0000       0.0000       0.0000       0.0000       0.0000       0.0000       0.0000       0.0000     
    174     (1,1525)              3133.0      -3123.8      -9.1706       0.0000       0.0000       0.0000       0.0000       0.0000       0.0000       0.0000       0.0000     
    175     (1,1524)              3123.8      -3159.0       35.245       0.0000       0.0000       0.0000       0.0000       0.0000       0.0000       0.0000       0.0000     
    176     (1,1521)              3159.0      -3167.4       8.3968       0.0000       0.0000       0.0000       0.0000       0.0000       0.0000       0.0000       0.0000     
    177     (1,1519)              3167.4      -3173.0       5.5766       0.0000       0.0000       0.0000       0.0000       0.0000       0.0000       0.0000       0.0000     
    178     (1,1518)              3173.0      -3168.9      -4.1285       0.0000       0.0000       0.0000       0.0000       0.0000       0.0000       0.0000       0.0000     
    179     (1,1515)              3168.9      -3156.4      -12.516       0.0000       0.0000       0.0000       0.0000       0.0000       0.0000       0.0000       0.0000     
    180     (1,1431)              3156.4      -3132.3      -24.104       0.0000       0.0000       0.0000       0.0000       0.0000       0.0000       0.0000       0.0000     
    181     (1,1429)              3132.3      -3097.9      -34.398       0.0000       0.0000       0.0000       0.0000       0.0000       0.0000       0.0000       0.0000     
    182     (1,1432)              3097.9      -3102.3       4.3931       0.0000       0.0000       0.0000       0.0000       0.0000       0.0000       0.0000       0.0000     
    183     (1,1353)              3102.3      -3099.4      -2.9056       0.0000       0.0000       0.0000       0.0000       0.0000       0.0000       0.0000       0.0000     
    184     (1,1351)              3099.4      -3087.1      -12.259       0.0000       0.0000       0.0000       0.0000       0.0000       0.0000       0.0000       0.0000     
    185     (1,1274)              3087.1      -3052.9      -34.185       0.0000       0.0000       0.0000       0.0000       0.0000       0.0000       0.0000       0.0000     
    186     (1,1272)              3052.9      -2990.4      -62.552       0.0000       0.0000       0.0000       0.0000       0.0000       0.0000       0.0000       0.0000     
    187     (1,1194)              2990.4      -3082.2       91.862       0.0000       0.0000       0.0000       0.0000       0.0000       0.0000       0.0000       0.0000     
    188     (1,1192)              3082.2      -3199.6       117.38       0.0000       0.0000       0.0000       0.0000       0.0000       0.0000       0.0000       0.0000     
    189     (1,1189)              3199.6      -3214.1       14.530       0.0000       0.0000       0.0000       0.0000       0.0000       0.0000       0.0000       0.0000     
    190     (1,1111)              3214.1      -3340.0       125.88       0.0000       0.0000       0.0000       0.0000       0.0000       0.0000       0.0000       0.0000     
    191     (1,1109)              3340.0      -3421.0       80.956       0.0000       0.0000       0.0000       0.0000       0.0000       0.0000       0.0000       0.0000     
    192     (1,1108)              3421.0      -3460.1       39.114       0.0000       0.0000       0.0000       0.0000       0.0000       0.0000       0.0000       0.0000     
    193     (1,1030)              3460.1      -3536.5       76.419       0.0000       0.0000       0.0000       0.0000       0.0000       0.0000       0.0000       0.0000     
    194     (1,1028)              3536.5      -3611.0       74.476       0.0000       0.0000       0.0000       0.0000       0.0000       0.0000       0.0000       0.0000     
    195     (1,950)               3611.0      -3631.9       20.916       0.0000       0.0000       0.0000       0.0000       0.0000       0.0000       0.0000       0.0000     
    196     (1,947)               3631.9      -3726.9       94.995       0.0000       0.0000       0.0000       0.0000       0.0000       0.0000       0.0000       0.0000     
    197     (1,945)               3726.9      -3800.0       73.074       0.0000       0.0000       0.0000       0.0000       0.0000       0.0000       0.0000       0.0000     
    198     (1,944)               3800.0      -3876.1       76.156       0.0000       0.0000       0.0000       0.0000       0.0000       0.0000       0.0000       0.0000     
    199     (1,866)               3876.1      -3918.8       42.689       0.0000       0.0000       0.0000       0.0000       0.0000       0.0000       0.0000       0.0000     
    200     (1,863)               3918.8      -3979.9       61.076       0.0000       0.0000       0.0000       0.0000       0.0000       0.0000       0.0000       0.0000     
    201     (1,861)               3979.9      -4035.8       55.889       0.0000       0.0000       0.0000       0.0000       0.0000       0.0000       0.0000       0.0000     
    202     (1,860)               4035.8      -4071.2       35.426       0.0000       0.0000       0.0000       0.0000       0.0000       0.0000       0.0000       0.0000     
    203     (1,782)               4071.2      -4129.8       58.579       0.0000       0.0000       0.0000       0.0000       0.0000       0.0000       0.0000       0.0000     
    204     (1,779)               4129.8      -4146.9       17.083       0.0000       0.0000       0.0000       0.0000       0.0000       0.0000       0.0000       0.0000     
    205     (1,777)               4146.9      -4215.9       69.083       0.0000       0.0000       0.0000       0.0000       0.0000       0.0000       0.0000       0.0000     
    206     (1,700)               4215.9      -4217.1       1.1884       0.0000       0.0000       0.0000       0.0000       0.0000       0.0000       0.0000       0.0000     
    207     (1,699)               4217.1      -4268.4       51.279       0.0000       0.0000       0.0000       0.0000       0.0000       0.0000       0.0000       0.0000     
    208     (1,697)               4268.4      -4280.2       11.774       0.0000       0.0000       0.0000       0.0000       0.0000       0.0000       0.0000       0.0000     
    209     (1,694)               4280.2      -4302.8       22.648       0.0000       0.0000       0.0000       0.0000       0.0000       0.0000       0.0000       0.0000     
    210     (1,618)               4302.8      -4343.8       41.011       0.0000       0.0000       0.0000       0.0000       0.0000       0.0000       0.0000       0.0000     
    211     (1,617)               4343.8      -4373.6       29.773       0.0000       0.0000       0.0000       0.0000       0.0000       0.0000       0.0000       0.0000     
    212     (1,615)               4373.6      -4414.9       41.267       0.0000       0.0000       0.0000       0.0000       0.0000       0.0000       0.0000       0.0000     
    213     (1,612)               4414.9      -4424.1       9.1940       0.0000       0.0000       0.0000       0.0000       0.0000       0.0000       0.0000       0.0000     
    214     (1,537)               4424.1      -4430.5       6.3782       0.0000       0.0000       0.0000       0.0000       0.0000       0.0000       0.0000       0.0000     
    215     (1,535)               4430.5      -4513.2       82.728       0.0000       0.0000       0.0000       0.0000       0.0000       0.0000       0.0000       0.0000     
    216     (1,534)               4513.2      -4606.9       93.697       0.0000       0.0000       0.0000       0.0000       0.0000       0.0000       0.0000       0.0000     
    217     (1,531)               4606.9      -4608.5       1.6276       0.0000       0.0000       0.0000       0.0000       0.0000       0.0000       0.0000       0.0000     
    218     (1,457)               4608.5      -4681.5       72.988       0.0000       0.0000       0.0000       0.0000       0.0000       0.0000       0.0000       0.0000     
    219     (1,455)               4681.5      -4751.8       70.309       0.0000       0.0000       0.0000       0.0000       0.0000       0.0000       0.0000       0.0000     
    220     (1,382)               4751.8      -4791.8       39.984       0.0000       0.0000       0.0000       0.0000       0.0000       0.0000       0.0000       0.0000     
    221     (1,381)               4791.8      -4850.6       58.817       0.0000       0.0000       0.0000       0.0000       0.0000       0.0000       0.0000       0.0000     
    222     (1,378)               4850.6      -4892.6       41.985       0.0000       0.0000       0.0000       0.0000       0.0000       0.0000       0.0000       0.0000     
    223     (1,377)               4892.6      -4929.1       36.498       0.0000       0.0000       0.0000       0.0000       0.0000       0.0000       0.0000       0.0000     
    224     (1,375)               4929.1      -4938.9       9.8485       0.0000       0.0000       0.0000       0.0000       0.0000       0.0000       0.0000       0.0000     
    225     (1,372)               4938.9      -4975.5       36.595       0.0000       0.0000       0.0000       0.0000       0.0000       0.0000       0.0000       0.0000     
    226     (1,371)               4975.5      -4985.3       9.8067       0.0000       0.0000       0.0000       0.0000       0.0000       0.0000       0.0000       0.0000     
    227     (1,299)               4985.3      -5009.0       23.631       0.0000       0.0000       0.0000       0.0000       0.0000       0.0000       0.0000       0.0000     
    228     (1,296)               5009.0      -5025.0       16.000       0.0000       0.0000       0.0000       0.0000       0.0000       0.0000       0.0000       0.0000     
    229     (1,294)               5025.0      -5028.4       3.4767       0.0000       0.0000       0.0000       0.0000       0.0000       0.0000       0.0000       0.0000     
    230     (1,293)               5028.4      -5039.7       11.304       0.0000       0.0000       0.0000       0.0000       0.0000       0.0000       0.0000       0.0000     
    231     (1,290)               5039.7      -5037.1      -2.6081       0.0000       0.0000       0.0000       0.0000       0.0000       0.0000       0.0000       0.0000     
    232     (1,289)               5037.1      -5024.0      -13.144       0.0000       0.0000       0.0000       0.0000       0.0000       0.0000       0.0000       0.0000     
    233     (1,286)               5024.0      -5019.1      -4.9018       0.0000       0.0000       0.0000       0.0000       0.0000       0.0000       0.0000       0.0000     
    234     (1,250)               5019.1      -4986.4      -32.718       0.0000       0.0000       0.0000       0.0000       0.0000       0.0000       0.0000       0.0000     
    235     (1,249)               4986.4      -4912.7      -73.665       0.0000       0.0000       0.0000       0.0000       0.0000       0.0000       0.0000       0.0000     
    236     (1,246)               4912.7      -4928.7       16.027       0.0000       0.0000       0.0000       0.0000       0.0000       0.0000       0.0000       0.0000     
    237     (1,244)               4928.7      -4968.8       40.073       0.0000       0.0000       0.0000       0.0000       0.0000       0.0000       0.0000       0.0000     
    238     (1,243)               4968.8      -5112.5       143.72       0.0000       0.0000       0.0000       0.0000       0.0000       0.0000       0.0000       0.0000     
    239     (1,209)               5112.5      -5184.0       71.466       0.0000       0.0000       0.0000       0.0000       0.0000       0.0000       0.0000       0.0000     
    240     (1,206)               5184.0      -5285.2       101.21       0.0000       0.0000       0.0000       0.0000       0.0000       0.0000       0.0000       0.0000     
    241     (1,204)               5285.2      -5340.6       55.375       0.0000       0.0000       0.0000       0.0000       0.0000       0.0000       0.0000       0.0000     
    242     (1,203)               5340.6      -5425.3       84.723       0.0000       0.0000       0.0000       0.0000       0.0000       0.0000       0.0000       0.0000     
    243     (1,171)               5425.3      -5474.4       49.072       0.0000       0.0000       0.0000       0.0000       0.0000       0.0000       0.0000       0.0000     
    244     (1,168)               5474.4      -5562.9       88.485       0.0000       0.0000       0.0000       0.0000       0.0000       0.0000       0.0000       0.0000     
    245     (1,166)               5562.9      -5570.3       7.4134       0.0000       0.0000       0.0000       0.0000       0.0000       0.0000       0.0000       0.0000     
    246     (1,165)               5570.3      -5663.2       92.874       0.0000       0.0000       0.0000       0.0000       0.0000       0.0000       0.0000       0.0000     
    247     (1,135)               5663.2      -5670.5       7.3017       0.0000       0.0000       0.0000       0.0000       0.0000       0.0000       0.0000       0.0000     
    248     (1,132)               5670.5      -5756.6       86.092       0.0000       0.0000       0.0000       0.0000       0.0000       0.0000       0.0000       0.0000     
    249     (1,130)               5756.6      -5763.4       6.8047       0.0000       0.0000       0.0000       0.0000       0.0000       0.0000       0.0000       0.0000     
    250     (1,129)               5763.4      -5845.3       81.896       0.0000       0.0000       0.0000       0.0000       0.0000       0.0000       0.0000       0.0000     
    251     (1,101)               5845.3      -5852.0       6.7113       0.0000       0.0000       0.0000       0.0000       0.0000       0.0000       0.0000       0.0000     
    252     (1,98)                5852.0      -5930.5       78.558       0.0000       0.0000       0.0000       0.0000       0.0000       0.0000       0.0000       0.0000     
    253     (1,96)                5930.5      -5936.9       6.3700       0.0000       0.0000       0.0000       0.0000       0.0000       0.0000       0.0000       0.0000     
    254     (1,95)                5936.9      -6012.4       75.536       0.0000       0.0000       0.0000       0.0000       0.0000       0.0000       0.0000       0.0000     
    255     (1,69)                6012.4      -6018.8       6.3774       0.0000       0.0000       0.0000       0.0000       0.0000       0.0000       0.0000       0.0000     
    256     (1,66)                6018.8      -6090.8       72.025       0.0000       0.0000       0.0000       0.0000       0.0000       0.0000       0.0000       0.0000     
    257     (1,65)                6090.8      -6094.6       3.7237       0.0000       0.0000       0.0000       0.0000       0.0000       0.0000       0.0000       0.0000     
    258     (1,63)                6094.6      -6162.4       67.845       0.0000       0.0000       0.0000       0.0000       0.0000       0.0000       0.0000       0.0000     
    259     (1,60)                6162.4      -6180.0       17.585       0.0000       0.0000       0.0000       0.0000       0.0000       0.0000       0.0000       0.0000     
    260     (1,36)                6180.0      -6301.1       121.08       0.0000       0.0000       0.0000       0.0000       0.0000       0.0000       0.0000       0.0000     
    261     (1,35)                6301.1      -6352.7       51.631       0.0000       0.0000       0.0000       0.0000       0.0000       0.0000       0.0000       0.0000     
    262     (1,33)                6352.7      -6451.0       98.301       0.0000       0.0000       0.0000       0.0000       0.0000       0.0000       0.0000       0.0000     
    263     (1,30)                6451.0      -6544.8       93.762       0.0000       0.0000       0.0000       0.0000       0.0000       0.0000       0.0000       0.0000     
    264     (1,8)                 6544.8      -6655.2       110.45       0.0000       0.0000       0.0000       0.0000       0.0000       0.0000       0.0000       0.0000     
    265     (1,7)                 6655.2      -6786.5       131.27       0.0000       0.0000       0.0000       0.0000       0.0000       0.0000       0.0000       0.0000     
    266     (1,5)                 6786.5       0.0000       22.768       0.0000       0.0000       0.0000       0.0000      -6809.2       0.0000       0.0000       0.0000     
 ------------------------------------------------------------------------------------------------------------------------------------------------------------------------------




  SFR BUDGET FOR ENTIRE MODEL AT END OF TIME STEP    1, STRESS PERIOD   1
  ------------------------------------------------------------------------------

     CUMULATIVE SFR      L**3       RATES FOR THIS TIME STEP      L**3/T
     ------------------                 ------------------------

           IN:                                      IN:
           ---                                      ---
                 GWF =        7289.7183                   GWF =        7289.7183
            RAINFALL =           0.0000              RAINFALL =           0.0000
         EVAPORATION =           0.0000           EVAPORATION =           0.0000
              RUNOFF =           0.0000                RUNOFF =           0.0000
          EXT-INFLOW =           0.0000            EXT-INFLOW =           0.0000
         EXT-OUTFLOW =           0.0000           EXT-OUTFLOW =           0.0000
             STORAGE =           0.0000               STORAGE =           0.0000

            TOTAL IN =        7289.7183              TOTAL IN =        7289.7183

          OUT:                                     OUT:
          ----                                     ----
                 GWF =         480.4823                   GWF =         480.4823
            RAINFALL =           0.0000              RAINFALL =           0.0000
         EVAPORATION =           0.0000           EVAPORATION =           0.0000
              RUNOFF =           0.0000                RUNOFF =           0.0000
          EXT-INFLOW =           0.0000            EXT-INFLOW =           0.0000
         EXT-OUTFLOW =        6809.2361           EXT-OUTFLOW =        6809.2361
             STORAGE =           0.0000               STORAGE =           0.0000

           TOTAL OUT =        7289.7183             TOTAL OUT =        7289.7183

            IN - OUT =       9.0949E-13              IN - OUT =       9.0949E-13

 PERCENT DISCREPANCY =           0.00     PERCENT DISCREPANCY =           0.00



  VOLUME BUDGET FOR ENTIRE MODEL AT END OF TIME STEP    1, STRESS PERIOD   1
  ---------------------------------------------------------------------------------------------------

     CUMULATIVE VOLUME      L**3       RATES FOR THIS TIME STEP      L**3/T          PACKAGE NAME    
     ------------------                 ------------------------                     ----------------

           IN:                                      IN:
           ---                                      ---
              STO-SS =           0.0000                STO-SS =           0.0000     STORAGE         
              STO-SY =           0.0000                STO-SY =           0.0000     STORAGE         
                 GHB =        9090.6977                   GHB =        9090.6977     GHB             
                 RCH =         140.1369                   RCH =         140.1369     RCH             
                 SFR =         480.5055                   SFR =         480.5055     SFR             

            TOTAL IN =        9711.3401              TOTAL IN =        9711.3401

          OUT:                                     OUT:
          ----                                     ----
              STO-SS =           0.0000                STO-SS =           0.0000     STORAGE         
              STO-SY =           0.0000                STO-SY =           0.0000     STORAGE         
                 GHB =        2421.7862                   GHB =        2421.7862     GHB             
                 RCH =           0.0000                   RCH =           0.0000     RCH             
                 SFR =        7289.6030                   SFR =        7289.6030     SFR             

           TOTAL OUT =        9711.3891             TOTAL OUT =        9711.3891

            IN - OUT =       4.9036E-02              IN - OUT =       4.9036E-02

 PERCENT DISCREPANCY =          -0.00     PERCENT DISCREPANCY =          -0.00




         TIME SUMMARY AT END OF TIME STEP    1 IN STRESS PERIOD    1
                    SECONDS     MINUTES      HOURS       DAYS        YEARS
                    -----------------------------------------------------------
   TIME STEP LENGTH  86400.      1440.0      24.000      1.0000     2.73785E-03
 STRESS PERIOD TIME  86400.      1440.0      24.000      1.0000     2.73785E-03
         TOTAL TIME  86400.      1440.0      24.000      1.0000     2.73785E-03


end timestep


start timestep kper="2" kstp="1" mode="normal"


 END OF FILE DETECTED IN OUTPUT CONTROL.
 CURRENT OUTPUT CONTROL SETTINGS WILL BE 
 REPEATED UNTIL THE END OF THE SIMULATION.

 OUTPUT CONTROL FOR STRESS PERIOD 2 IS REPEATED USING SETTINGS FROM A PREVIOUS STRESS PERIOD.


 PROCESSING STORAGE PERIOD DATA
 END PROCESSING STORAGE PERIOD DATA


 STRESS PERIOD 2 IS TRANSIENT


 REUSING GHBS FROM LAST STRESS PERIOD
 -------------------------------------------
  RCH NO.    LAYER  CELL2D      RECHARGE    
 -------------------------------------------
     1         1       7     5.479452050E-04
     2         1       8     5.479452050E-04
     3         1      24     5.479452050E-04
     4         1      25     5.479452050E-04
     5         1      26     5.479452050E-04
     6         1      27     5.479452050E-04
     7         1      28     5.479452050E-04
     8         1      29     5.479452050E-04
     9         1      30     5.479452050E-04
     10        1      31     5.479452050E-04
     11        1      32     5.479452050E-04
     12        1      33     5.479452050E-04
     13        1      34     5.479452050E-04
     14        1      35     5.479452050E-04
     15        1      36     5.479452050E-04
     16        1      37     5.479452050E-04
     17        1      38     5.479452050E-04
     18        1      39     5.479452050E-04
     19        1      40     5.479452050E-04
     20        1      41     5.479452050E-04
     21        1      42     5.479452050E-04
     22        1      43     5.479452050E-04
     23        1      44     5.479452050E-04
     24        1      45     5.479452050E-04
     25        1      46     5.479452050E-04
     26        1      47     5.479452050E-04
     27        1      48     5.479452050E-04
     28        1      49     5.479452050E-04
     29        1      50     5.479452050E-04
     30        1      53     5.479452050E-04
     31        1      54     5.479452050E-04
     32        1      55     5.479452050E-04
     33        1      56     5.479452050E-04
     34        1      57     5.479452050E-04
     35        1      58     5.479452050E-04
     36        1      59     5.479452050E-04
     37        1      60     5.479452050E-04
     38        1      61     5.479452050E-04
     39        1      62     5.479452050E-04
     40        1      63     5.479452050E-04
     41        1      64     5.479452050E-04
     42        1      65     5.479452050E-04
     43        1      66     5.479452050E-04
     44        1      67     5.479452050E-04
     45        1      68     5.479452050E-04
     46        1      69     5.479452050E-04
     47        1      70     5.479452050E-04
     48        1      71     5.479452050E-04
     49        1      72     5.479452050E-04
     50        1      73     5.479452050E-04
     51        1      74     5.479452050E-04
     52        1      75     5.479452050E-04
     53        1      76     5.479452050E-04
     54        1      77     5.479452050E-04
     55        1      78     5.479452050E-04
     56        1      79     5.479452050E-04
     57        1      80     5.479452050E-04
     58        1      81     5.479452050E-04
     59        1      82     5.479452050E-04
     60        1      83     5.479452050E-04
     61        1      86     5.479452050E-04
     62        1      87     5.479452050E-04
     63        1      88     5.479452050E-04
     64        1      89     5.479452050E-04
     65        1      90     5.479452050E-04
     66        1      91     5.479452050E-04
     67        1      92     5.479452050E-04
     68        1      93     5.479452050E-04
     69        1      94     5.479452050E-04
     70        1      95     5.479452050E-04
     71        1      96     5.479452050E-04
     72        1      97     5.479452050E-04
     73        1      98     5.479452050E-04
     74        1      99     5.479452050E-04
     75        1      100    5.479452050E-04
     76        1      101    5.479452050E-04
     77        1      102    5.479452050E-04
     78        1      103    5.479452050E-04
     79        1      104    5.479452050E-04
     80        1      105    5.479452050E-04
     81        1      106    5.479452050E-04
     82        1      107    5.479452050E-04
     83        1      108    5.479452050E-04
     84        1      109    5.479452050E-04
     85        1      110    5.479452050E-04
     86        1      111    5.479452050E-04
     87        1      112    5.479452050E-04
     88        1      113    5.479452050E-04
     89        1      114    5.479452050E-04
     90        1      115    5.479452050E-04
     91        1      118    5.479452050E-04
     92        1      119    5.479452050E-04
     93        1      120    5.479452050E-04
     94        1      121    5.479452050E-04
     95        1      122    5.479452050E-04
     96        1      123    5.479452050E-04
     97        1      124    5.479452050E-04
     98        1      125    5.479452050E-04
     99        1      126    5.479452050E-04
    100        1      127    5.479452050E-04
    101        1      128    5.479452050E-04
    102        1      129    5.479452050E-04
    103        1      130    5.479452050E-04
    104        1      131    5.479452050E-04
    105        1      132    5.479452050E-04
    106        1      133    5.479452050E-04
    107        1      134    5.479452050E-04
    108        1      135    5.479452050E-04
    109        1      136    5.479452050E-04
    110        1      137    5.479452050E-04
    111        1      138    5.479452050E-04
    112        1      139    5.479452050E-04
    113        1      140    5.479452050E-04
    114        1      141    5.479452050E-04
    115        1      142    5.479452050E-04
    116        1      143    5.479452050E-04
    117        1      144    5.479452050E-04
    118        1      145    5.479452050E-04
    119        1      146    5.479452050E-04
    120        1      147    5.479452050E-04
    121        1      148    5.479452050E-04
    122        1      149    5.479452050E-04
    123        1      152    5.479452050E-04
    124        1      153    5.479452050E-04
    125        1      154    5.479452050E-04
    126        1      155    5.479452050E-04
    127        1      156    5.479452050E-04
    128        1      157    5.479452050E-04
    129        1      158    5.479452050E-04
    130        1      159    5.479452050E-04
    131        1      160    5.479452050E-04
    132        1      161    5.479452050E-04
    133        1      162    5.479452050E-04
    134        1      163    5.479452050E-04
    135        1      164    5.479452050E-04
    136        1      165    5.479452050E-04
    137        1      166    5.479452050E-04
    138        1      167    5.479452050E-04
    139        1      168    5.479452050E-04
    140        1      169    5.479452050E-04
    141        1      170    5.479452050E-04
    142        1      171    5.479452050E-04
    143        1      172    5.479452050E-04
    144        1      173    5.479452050E-04
    145        1      174    5.479452050E-04
    146        1      175    5.479452050E-04
    147        1      176    5.479452050E-04
    148        1      177    5.479452050E-04
    149        1      178    5.479452050E-04
    150        1      179    5.479452050E-04
    151        1      180    5.479452050E-04
    152        1      181    5.479452050E-04
    153        1      182    5.479452050E-04
    154        1      183    5.479452050E-04
    155        1      184    5.479452050E-04
    156        1      185    5.479452050E-04
    157        1      188    5.479452050E-04
    158        1      189    5.479452050E-04
    159        1      190    5.479452050E-04
    160        1      191    5.479452050E-04
    161        1      192    5.479452050E-04
    162        1      193    5.479452050E-04
    163        1      194    5.479452050E-04
    164        1      195    5.479452050E-04
    165        1      196    5.479452050E-04
    166        1      197    5.479452050E-04
    167        1      198    5.479452050E-04
    168        1      199    5.479452050E-04
    169        1      200    5.479452050E-04
    170        1      201    5.479452050E-04
    171        1      202    5.479452050E-04
    172        1      203    5.479452050E-04
    173        1      204    5.479452050E-04
    174        1      205    5.479452050E-04
    175        1      206    5.479452050E-04
    176        1      207    5.479452050E-04
    177        1      208    5.479452050E-04
    178        1      209    5.479452050E-04
    179        1      210    5.479452050E-04
    180        1      211    5.479452050E-04
    181        1      212    5.479452050E-04
    182        1      213    5.479452050E-04
    183        1      214    5.479452050E-04
    184        1      215    5.479452050E-04
    185        1      216    5.479452050E-04
    186        1      217    5.479452050E-04
    187        1      218    5.479452050E-04
    188        1      219    5.479452050E-04
    189        1      220    5.479452050E-04
    190        1      221    5.479452050E-04
    191        1      222    5.479452050E-04
    192        1      223    5.479452050E-04
    193        1      225    5.479452050E-04
    194        1      226    5.479452050E-04
    195        1      227    5.479452050E-04
    196        1      228    5.479452050E-04
    197        1      229    5.479452050E-04
    198        1      230    5.479452050E-04
    199        1      231    5.479452050E-04
    200        1      232    5.479452050E-04
    201        1      233    5.479452050E-04
    202        1      234    5.479452050E-04
    203        1      235    5.479452050E-04
    204        1      236    5.479452050E-04
    205        1      237    5.479452050E-04
    206        1      238    5.479452050E-04
    207        1      239    5.479452050E-04
    208        1      240    5.479452050E-04
    209        1      241    5.479452050E-04
    210        1      242    5.479452050E-04
    211        1      243    5.479452050E-04
    212        1      244    5.479452050E-04
    213        1      245    5.479452050E-04
    214        1      246    5.479452050E-04
    215        1      247    5.479452050E-04
    216        1      248    5.479452050E-04
    217        1      249    5.479452050E-04
    218        1      250    5.479452050E-04
    219        1      251    5.479452050E-04
    220        1      252    5.479452050E-04
    221        1      253    5.479452050E-04
    222        1      254    5.479452050E-04
    223        1      255    5.479452050E-04
    224        1      256    5.479452050E-04
    225        1      257    5.479452050E-04
    226        1      258    5.479452050E-04
    227        1      259    5.479452050E-04
    228        1      260    5.479452050E-04
    229        1      261    5.479452050E-04
    230        1      262    5.479452050E-04
    231        1      263    5.479452050E-04
    232        1      266    5.479452050E-04
    233        1      267    5.479452050E-04
    234        1      268    5.479452050E-04
    235        1      269    5.479452050E-04
    236        1      270    5.479452050E-04
    237        1      271    5.479452050E-04
    238        1      272    5.479452050E-04
    239        1      273    5.479452050E-04
    240        1      274    5.479452050E-04
    241        1      275    5.479452050E-04
    242        1      276    5.479452050E-04
    243        1      277    5.479452050E-04
    244        1      278    5.479452050E-04
    245        1      279    5.479452050E-04
    246        1      280    5.479452050E-04
    247        1      281    5.479452050E-04
    248        1      282    5.479452050E-04
    249        1      283    5.479452050E-04
    250        1      284    5.479452050E-04
    251        1      285    5.479452050E-04
    252        1      286    5.479452050E-04
    253        1      287    5.479452050E-04
    254        1      288    5.479452050E-04
    255        1      289    5.479452050E-04
    256        1      290    5.479452050E-04
    257        1      291    5.479452050E-04
    258        1      292    5.479452050E-04
    259        1      293    5.479452050E-04
    260        1      294    5.479452050E-04
    261        1      295    5.479452050E-04
    262        1      296    5.479452050E-04
    263        1      297    5.479452050E-04
    264        1      298    5.479452050E-04
    265        1      299    5.479452050E-04
    266        1      300    5.479452050E-04
    267        1      301    5.479452050E-04
    268        1      302    5.479452050E-04
    269        1      303    5.479452050E-04
    270        1      304    5.479452050E-04
    271        1      305    5.479452050E-04
    272        1      306    5.479452050E-04
    273        1      307    5.479452050E-04
    274        1      308    5.479452050E-04
    275        1      309    5.479452050E-04
    276        1      310    5.479452050E-04
    277        1      311    5.479452050E-04
    278        1      349    5.479452050E-04
    279        1      350    5.479452050E-04
    280        1      351    5.479452050E-04
    281        1      352    5.479452050E-04
    282        1      353    5.479452050E-04
    283        1      354    5.479452050E-04
    284        1      355    5.479452050E-04
    285        1      356    5.479452050E-04
    286        1      357    5.479452050E-04
    287        1      358    5.479452050E-04
    288        1      359    5.479452050E-04
    289        1      360    5.479452050E-04
    290        1      361    5.479452050E-04
    291        1      362    5.479452050E-04
    292        1      363    5.479452050E-04
    293        1      364    5.479452050E-04
    294        1      365    5.479452050E-04
    295        1      366    5.479452050E-04
    296        1      367    5.479452050E-04
    297        1      368    5.479452050E-04
    298        1      369    5.479452050E-04
    299        1      370    5.479452050E-04
    300        1      371    5.479452050E-04
    301        1      372    5.479452050E-04
    302        1      373    5.479452050E-04
    303        1      374    5.479452050E-04
    304        1      375    5.479452050E-04
    305        1      376    5.479452050E-04
    306        1      377    5.479452050E-04
    307        1      378    5.479452050E-04
    308        1      379    5.479452050E-04
    309        1      380    5.479452050E-04
    310        1      381    5.479452050E-04
    311        1      382    5.479452050E-04
    312        1      383    5.479452050E-04
    313        1      384    5.479452050E-04
    314        1      385    5.479452050E-04
    315        1      386    5.479452050E-04
    316        1      387    5.479452050E-04
    317        1      388    5.479452050E-04
    318        1      389    5.479452050E-04
    319        1      390    5.479452050E-04
    320        1      391    5.479452050E-04
    321        1      392    5.479452050E-04
    322        1      393    5.479452050E-04
    323        1      394    5.479452050E-04
    324        1      395    5.479452050E-04
    325        1      396    5.479452050E-04
    326        1      397    5.479452050E-04
    327        1      398    5.479452050E-04
    328        1      399    5.479452050E-04
    329        1      400    5.479452050E-04
    330        1      401    5.479452050E-04
    331        1      402    5.479452050E-04
    332        1      403    5.479452050E-04
    333        1      404    5.479452050E-04
    334        1      405    5.479452050E-04
    335        1      406    5.479452050E-04
    336        1      407    5.479452050E-04
    337        1      408    5.479452050E-04
    338        1      409    5.479452050E-04
    339        1      410    5.479452050E-04
    340        1      411    5.479452050E-04
    341        1      412    5.479452050E-04
    342        1      413    5.479452050E-04
    343        1      414    5.479452050E-04
    344        1      415    5.479452050E-04
    345        1      416    5.479452050E-04
    346        1      417    5.479452050E-04
    347        1      418    5.479452050E-04
    348        1      419    5.479452050E-04
    349        1      420    5.479452050E-04
    350        1      421    5.479452050E-04
    351        1      422    5.479452050E-04
    352        1      423    5.479452050E-04
    353        1      424    5.479452050E-04
    354        1      425    5.479452050E-04
    355        1      426    5.479452050E-04
    356        1      427    5.479452050E-04
    357        1      430    5.479452050E-04
    358        1      431    5.479452050E-04
    359        1      432    5.479452050E-04
    360        1      433    5.479452050E-04
    361        1      434    5.479452050E-04
    362        1      435    5.479452050E-04
    363        1      436    5.479452050E-04
    364        1      437    5.479452050E-04
    365        1      438    5.479452050E-04
    366        1      439    5.479452050E-04
    367        1      440    5.479452050E-04
    368        1      441    5.479452050E-04
    369        1      442    5.479452050E-04
    370        1      443    5.479452050E-04
    371        1      444    5.479452050E-04
    372        1      445    5.479452050E-04
    373        1      446    5.479452050E-04
    374        1      447    5.479452050E-04
    375        1      448    5.479452050E-04
    376        1      449    5.479452050E-04
    377        1      450    5.479452050E-04
    378        1      451    5.479452050E-04
    379        1      452    5.479452050E-04
    380        1      453    5.479452050E-04
    381        1      454    5.479452050E-04
    382        1      455    5.479452050E-04
    383        1      456    5.479452050E-04
    384        1      457    5.479452050E-04
    385        1      458    5.479452050E-04
    386        1      459    5.479452050E-04
    387        1      460    5.479452050E-04
    388        1      461    5.479452050E-04
    389        1      462    5.479452050E-04
    390        1      463    5.479452050E-04
    391        1      464    5.479452050E-04
    392        1      465    5.479452050E-04
    393        1      466    5.479452050E-04
    394        1      467    5.479452050E-04
    395        1      468    5.479452050E-04
    396        1      469    5.479452050E-04
    397        1      470    5.479452050E-04
    398        1      471    5.479452050E-04
    399        1      472    5.479452050E-04
    400        1      473    5.479452050E-04
    401        1      474    5.479452050E-04
    402        1      475    5.479452050E-04
    403        1      476    5.479452050E-04
    404        1      477    5.479452050E-04
    405        1      478    5.479452050E-04
    406        1      479    5.479452050E-04
    407        1      480    5.479452050E-04
    408        1      481    5.479452050E-04
    409        1      482    5.479452050E-04
    410        1      483    5.479452050E-04
    411        1      484    5.479452050E-04
    412        1      485    5.479452050E-04
    413        1      486    5.479452050E-04
    414        1      487    5.479452050E-04
    415        1      488    5.479452050E-04
    416        1      489    5.479452050E-04
    417        1      490    5.479452050E-04
    418        1      491    5.479452050E-04
    419        1      492    5.479452050E-04
    420        1      493    5.479452050E-04
    421        1      494    5.479452050E-04
    422        1      495    5.479452050E-04
    423        1      496    5.479452050E-04
    424        1      497    5.479452050E-04
    425        1      498    5.479452050E-04
    426        1      499    5.479452050E-04
    427        1      500    5.479452050E-04
    428        1      501    5.479452050E-04
    429        1      502    5.479452050E-04
    430        1      503    5.479452050E-04
    431        1      506    5.479452050E-04
    432        1      507    5.479452050E-04
    433        1      508    5.479452050E-04
    434        1      509    5.479452050E-04
    435        1      510    5.479452050E-04
    436        1      511    5.479452050E-04
    437        1      512    5.479452050E-04
    438        1      513    5.479452050E-04
    439        1      514    5.479452050E-04
    440        1      515    5.479452050E-04
    441        1      516    5.479452050E-04
    442        1      517    5.479452050E-04
    443        1      518    5.479452050E-04
    444        1      519    5.479452050E-04
    445        1      520    5.479452050E-04
    446        1      521    5.479452050E-04
    447        1      522    5.479452050E-04
    448        1      523    5.479452050E-04
    449        1      524    5.479452050E-04
    450        1      525    5.479452050E-04
    451        1      526    5.479452050E-04
    452        1      527    5.479452050E-04
    453        1      528    5.479452050E-04
    454        1      529    5.479452050E-04
    455        1      530    5.479452050E-04
    456        1      531    5.479452050E-04
    457        1      532    5.479452050E-04
    458        1      533    5.479452050E-04
    459        1      534    5.479452050E-04
    460        1      535    5.479452050E-04
    461        1      536    5.479452050E-04
    462        1      537    5.479452050E-04
    463        1      538    5.479452050E-04
    464        1      539    5.479452050E-04
    465        1      540    5.479452050E-04
    466        1      541    5.479452050E-04
    467        1      542    5.479452050E-04
    468        1      543    5.479452050E-04
    469        1      544    5.479452050E-04
    470        1      545    5.479452050E-04
    471        1      546    5.479452050E-04
    472        1      547    5.479452050E-04
    473        1      548    5.479452050E-04
    474        1      549    5.479452050E-04
    475        1      550    5.479452050E-04
    476        1      551    5.479452050E-04
    477        1      552    5.479452050E-04
    478        1      553    5.479452050E-04
    479        1      554    5.479452050E-04
    480        1      555    5.479452050E-04
    481        1      556    5.479452050E-04
    482        1      557    5.479452050E-04
    483        1      558    5.479452050E-04
    484        1      559    5.479452050E-04
    485        1      560    5.479452050E-04
    486        1      561    5.479452050E-04
    487        1      562    5.479452050E-04
    488        1      563    5.479452050E-04
    489        1      564    5.479452050E-04
    490        1      565    5.479452050E-04
    491        1      566    5.479452050E-04
    492        1      567    5.479452050E-04
    493        1      568    5.479452050E-04
    494        1      569    5.479452050E-04
    495        1      570    5.479452050E-04
    496        1      571    5.479452050E-04
    497        1      572    5.479452050E-04
    498        1      573    5.479452050E-04
    499        1      574    5.479452050E-04
    500        1      575    5.479452050E-04
    501        1      576    5.479452050E-04
    502        1      577    5.479452050E-04
    503        1      578    5.479452050E-04
    504        1      579    5.479452050E-04
    505        1      580    5.479452050E-04
    506        1      581    5.479452050E-04
    507        1      582    5.479452050E-04
    508        1      583    5.479452050E-04
    509        1      586    5.479452050E-04
    510        1      587    5.479452050E-04
    511        1      588    5.479452050E-04
    512        1      589    5.479452050E-04
    513        1      590    5.479452050E-04
    514        1      591    5.479452050E-04
    515        1      592    5.479452050E-04
    516        1      593    5.479452050E-04
    517        1      594    5.479452050E-04
    518        1      595    5.479452050E-04
    519        1      596    5.479452050E-04
    520        1      597    5.479452050E-04
    521        1      598    5.479452050E-04
    522        1      599    5.479452050E-04
    523        1      600    5.479452050E-04
    524        1      601    5.479452050E-04
    525        1      602    5.479452050E-04
    526        1      603    5.479452050E-04
    527        1      604    5.479452050E-04
    528        1      605    5.479452050E-04
    529        1      606    5.479452050E-04
    530        1      607    5.479452050E-04
    531        1      608    5.479452050E-04
    532        1      609    5.479452050E-04
    533        1      610    5.479452050E-04
    534        1      611    5.479452050E-04
    535        1      612    5.479452050E-04
    536        1      613    5.479452050E-04
    537        1      614    5.479452050E-04
    538        1      615    5.479452050E-04
    539        1      616    5.479452050E-04
    540        1      617    5.479452050E-04
    541        1      618    5.479452050E-04
    542        1      619    5.479452050E-04
    543        1      620    5.479452050E-04
    544        1      621    5.479452050E-04
    545        1      622    5.479452050E-04
    546        1      623    5.479452050E-04
    547        1      624    5.479452050E-04
    548        1      625    5.479452050E-04
    549        1      626    5.479452050E-04
    550        1      627    5.479452050E-04
    551        1      628    5.479452050E-04
    552        1      629    5.479452050E-04
    553        1      630    5.479452050E-04
    554        1      631    5.479452050E-04
    555        1      632    5.479452050E-04
    556        1      633    5.479452050E-04
    557        1      634    5.479452050E-04
    558        1      635    5.479452050E-04
    559        1      636    5.479452050E-04
    560        1      637    5.479452050E-04
    561        1      638    5.479452050E-04
    562        1      639    5.479452050E-04
    563        1      640    5.479452050E-04
    564        1      641    5.479452050E-04
    565        1      642    5.479452050E-04
    566        1      643    5.479452050E-04
    567        1      644    5.479452050E-04
    568        1      645    5.479452050E-04
    569        1      646    5.479452050E-04
    570        1      647    5.479452050E-04
    571        1      648    5.479452050E-04
    572        1      649    5.479452050E-04
    573        1      650    5.479452050E-04
    574        1      651    5.479452050E-04
    575        1      652    5.479452050E-04
    576        1      653    5.479452050E-04
    577        1      654    5.479452050E-04
    578        1      655    5.479452050E-04
    579        1      656    5.479452050E-04
    580        1      657    5.479452050E-04
    581        1      658    5.479452050E-04
    582        1      659    5.479452050E-04
    583        1      660    5.479452050E-04
    584        1      661    5.479452050E-04
    585        1      662    5.479452050E-04
    586        1      663    5.479452050E-04
    587        1      664    5.479452050E-04
    588        1      667    5.479452050E-04
    589        1      668    5.479452050E-04
    590        1      669    5.479452050E-04
    591        1      670    5.479452050E-04
    592        1      671    5.479452050E-04
    593        1      672    5.479452050E-04
    594        1      673    5.479452050E-04
    595        1      674    5.479452050E-04
    596        1      675    5.479452050E-04
    597        1      676    5.479452050E-04
    598        1      677    5.479452050E-04
    599        1      678    5.479452050E-04
    600        1      679    5.479452050E-04
    601        1      680    5.479452050E-04
    602        1      681    5.479452050E-04
    603        1      682    5.479452050E-04
    604        1      683    5.479452050E-04
    605        1      684    5.479452050E-04
    606        1      685    5.479452050E-04
    607        1      686    5.479452050E-04
    608        1      687    5.479452050E-04
    609        1      688    5.479452050E-04
    610        1      689    5.479452050E-04
    611        1      690    5.479452050E-04
    612        1      691    5.479452050E-04
    613        1      692    5.479452050E-04
    614        1      693    5.479452050E-04
    615        1      694    5.479452050E-04
    616        1      695    5.479452050E-04
    617        1      696    5.479452050E-04
    618        1      697    5.479452050E-04
    619        1      698    5.479452050E-04
    620        1      699    5.479452050E-04
    621        1      700    5.479452050E-04
    622        1      701    5.479452050E-04
    623        1      702    5.479452050E-04
    624        1      703    5.479452050E-04
    625        1      704    5.479452050E-04
    626        1      705    5.479452050E-04
    627        1      706    5.479452050E-04
    628        1      707    5.479452050E-04
    629        1      708    5.479452050E-04
    630        1      709    5.479452050E-04
    631        1      710    5.479452050E-04
    632        1      711    5.479452050E-04
    633        1      712    5.479452050E-04
    634        1      713    5.479452050E-04
    635        1      714    5.479452050E-04
    636        1      715    5.479452050E-04
    637        1      716    5.479452050E-04
    638        1      717    5.479452050E-04
    639        1      718    5.479452050E-04
    640        1      719    5.479452050E-04
    641        1      720    5.479452050E-04
    642        1      721    5.479452050E-04
    643        1      722    5.479452050E-04
    644        1      723    5.479452050E-04
    645        1      724    5.479452050E-04
    646        1      725    5.479452050E-04
    647        1      726    5.479452050E-04
    648        1      727    5.479452050E-04
    649        1      728    5.479452050E-04
    650        1      729    5.479452050E-04
    651        1      730    5.479452050E-04
    652        1      731    5.479452050E-04
    653        1      732    5.479452050E-04
    654        1      733    5.479452050E-04
    655        1      734    5.479452050E-04
    656        1      735    5.479452050E-04
    657        1      736    5.479452050E-04
    658        1      737    5.479452050E-04
    659        1      738    5.479452050E-04
    660        1      739    5.479452050E-04
    661        1      740    5.479452050E-04
    662        1      741    5.479452050E-04
    663        1      742    5.479452050E-04
    664        1      743    5.479452050E-04
    665        1      744    5.479452050E-04
    666        1      745    5.479452050E-04
    667        1      746    5.479452050E-04
    668        1      749    5.479452050E-04
    669        1      750    5.479452050E-04
    670        1      751    5.479452050E-04
    671        1      752    5.479452050E-04
    672        1      753    5.479452050E-04
    673        1      754    5.479452050E-04
    674        1      755    5.479452050E-04
    675        1      756    5.479452050E-04
    676        1      757    5.479452050E-04
    677        1      758    5.479452050E-04
    678        1      759    5.479452050E-04
    679        1      760    5.479452050E-04
    680        1      761    5.479452050E-04
    681        1      762    5.479452050E-04
    682        1      763    5.479452050E-04
    683        1      764    5.479452050E-04
    684        1      765    5.479452050E-04
    685        1      766    5.479452050E-04
    686        1      767    5.479452050E-04
    687        1      768    5.479452050E-04
    688        1      769    5.479452050E-04
    689        1      770    5.479452050E-04
    690        1      771    5.479452050E-04
    691        1      772    5.479452050E-04
    692        1      773    5.479452050E-04
    693        1      774    5.479452050E-04
    694        1      775    5.479452050E-04
    695        1      776    5.479452050E-04
    696        1      777    5.479452050E-04
    697        1      778    5.479452050E-04
    698        1      779    5.479452050E-04
    699        1      780    5.479452050E-04
    700        1      781    5.479452050E-04
    701        1      782    5.479452050E-04
    702        1      783    5.479452050E-04
    703        1      784    5.479452050E-04
    704        1      785    5.479452050E-04
    705        1      786    5.479452050E-04
    706        1      787    5.479452050E-04
    707        1      788    5.479452050E-04
    708        1      789    5.479452050E-04
    709        1      790    5.479452050E-04
    710        1      791    5.479452050E-04
    711        1      792    5.479452050E-04
    712        1      793    5.479452050E-04
    713        1      794    5.479452050E-04
    714        1      795    5.479452050E-04
    715        1      796    5.479452050E-04
    716        1      797    5.479452050E-04
    717        1      798    5.479452050E-04
    718        1      799    5.479452050E-04
    719        1      800    5.479452050E-04
    720        1      801    5.479452050E-04
    721        1      802    5.479452050E-04
    722        1      803    5.479452050E-04
    723        1      804    5.479452050E-04
    724        1      805    5.479452050E-04
    725        1      806    5.479452050E-04
    726        1      807    5.479452050E-04
    727        1      808    5.479452050E-04
    728        1      809    5.479452050E-04
    729        1      810    5.479452050E-04
    730        1      811    5.479452050E-04
    731        1      812    5.479452050E-04
    732        1      813    5.479452050E-04
    733        1      814    5.479452050E-04
    734        1      815    5.479452050E-04
    735        1      816    5.479452050E-04
    736        1      817    5.479452050E-04
    737        1      818    5.479452050E-04
    738        1      819    5.479452050E-04
    739        1      820    5.479452050E-04
    740        1      821    5.479452050E-04
    741        1      822    5.479452050E-04
    742        1      823    5.479452050E-04
    743        1      824    5.479452050E-04
    744        1      825    5.479452050E-04
    745        1      826    5.479452050E-04
    746        1      827    5.479452050E-04
    747        1      828    5.479452050E-04
    748        1      829    5.479452050E-04
    749        1      832    5.479452050E-04
    750        1      833    5.479452050E-04
    751        1      834    5.479452050E-04
    752        1      835    5.479452050E-04
    753        1      836    5.479452050E-04
    754        1      837    5.479452050E-04
    755        1      838    5.479452050E-04
    756        1      839    5.479452050E-04
    757        1      840    5.479452050E-04
    758        1      841    5.479452050E-04
    759        1      842    5.479452050E-04
    760        1      843    5.479452050E-04
    761        1      844    5.479452050E-04
    762        1      845    5.479452050E-04
    763        1      846    5.479452050E-04
    764        1      847    5.479452050E-04
    765        1      848    5.479452050E-04
    766        1      849    5.479452050E-04
    767        1      850    5.479452050E-04
    768        1      851    5.479452050E-04
    769        1      852    5.479452050E-04
    770        1      853    5.479452050E-04
    771        1      854    5.479452050E-04
    772        1      855    5.479452050E-04
    773        1      856    5.479452050E-04
    774        1      857    5.479452050E-04
    775        1      858    5.479452050E-04
    776        1      859    5.479452050E-04
    777        1      860    5.479452050E-04
    778        1      861    5.479452050E-04
    779        1      862    5.479452050E-04
    780        1      863    5.479452050E-04
    781        1      864    5.479452050E-04
    782        1      865    5.479452050E-04
    783        1      866    5.479452050E-04
    784        1      867    5.479452050E-04
    785        1      868    5.479452050E-04
    786        1      869    5.479452050E-04
    787        1      870    5.479452050E-04
    788        1      871    5.479452050E-04
    789        1      872    5.479452050E-04
    790        1      873    5.479452050E-04
    791        1      874    5.479452050E-04
    792        1      875    5.479452050E-04
    793        1      876    5.479452050E-04
    794        1      877    5.479452050E-04
    795        1      878    5.479452050E-04
    796        1      879    5.479452050E-04
    797        1      880    5.479452050E-04
    798        1      881    5.479452050E-04
    799        1      882    5.479452050E-04
    800        1      883    5.479452050E-04
    801        1      884    5.479452050E-04
    802        1      885    5.479452050E-04
    803        1      886    5.479452050E-04
    804        1      887    5.479452050E-04
    805        1      888    5.479452050E-04
    806        1      889    5.479452050E-04
    807        1      890    5.479452050E-04
    808        1      891    5.479452050E-04
    809        1      892    5.479452050E-04
    810        1      893    5.479452050E-04
    811        1      894    5.479452050E-04
    812        1      895    5.479452050E-04
    813        1      896    5.479452050E-04
    814        1      897    5.479452050E-04
    815        1      898    5.479452050E-04
    816        1      899    5.479452050E-04
    817        1      900    5.479452050E-04
    818        1      901    5.479452050E-04
    819        1      902    5.479452050E-04
    820        1      903    5.479452050E-04
    821        1      904    5.479452050E-04
    822        1      905    5.479452050E-04
    823        1      906    5.479452050E-04
    824        1      907    5.479452050E-04
    825        1      908    5.479452050E-04
    826        1      909    5.479452050E-04
    827        1      910    5.479452050E-04
    828        1      911    5.479452050E-04
    829        1      912    5.479452050E-04
    830        1      915    5.479452050E-04
    831        1      916    5.479452050E-04
    832        1      917    5.479452050E-04
    833        1      918    5.479452050E-04
    834        1      919    5.479452050E-04
    835        1      920    5.479452050E-04
    836        1      921    5.479452050E-04
    837        1      922    5.479452050E-04
    838        1      923    5.479452050E-04
    839        1      924    5.479452050E-04
    840        1      925    5.479452050E-04
    841        1      926    5.479452050E-04
    842        1      927    5.479452050E-04
    843        1      928    5.479452050E-04
    844        1      929    5.479452050E-04
    845        1      930    5.479452050E-04
    846        1      931    5.479452050E-04
    847        1      932    5.479452050E-04
    848        1      933    5.479452050E-04
    849        1      934    5.479452050E-04
    850        1      935    5.479452050E-04
    851        1      936    5.479452050E-04
    852        1      937    5.479452050E-04
    853        1      938    5.479452050E-04
    854        1      939    5.479452050E-04
    855        1      940    5.479452050E-04
    856        1      941    5.479452050E-04
    857        1      942    5.479452050E-04
    858        1      943    5.479452050E-04
    859        1      944    5.479452050E-04
    860        1      945    5.479452050E-04
    861        1      946    5.479452050E-04
    862        1      947    5.479452050E-04
    863        1      948    5.479452050E-04
    864        1      949    5.479452050E-04
    865        1      950    5.479452050E-04
    866        1      951    5.479452050E-04
    867        1      952    5.479452050E-04
    868        1      953    5.479452050E-04
    869        1      954    5.479452050E-04
    870        1      955    5.479452050E-04
    871        1      956    5.479452050E-04
    872        1      957    5.479452050E-04
    873        1      958    5.479452050E-04
    874        1      959    5.479452050E-04
    875        1      960    5.479452050E-04
    876        1      961    5.479452050E-04
    877        1      962    5.479452050E-04
    878        1      963    5.479452050E-04
    879        1      964    5.479452050E-04
    880        1      965    5.479452050E-04
    881        1      966    5.479452050E-04
    882        1      967    5.479452050E-04
    883        1      968    5.479452050E-04
    884        1      969    5.479452050E-04
    885        1      970    5.479452050E-04
    886        1      971    5.479452050E-04
    887        1      972    5.479452050E-04
    888        1      973    5.479452050E-04
    889        1      974    5.479452050E-04
    890        1      975    5.479452050E-04
    891        1      976    5.479452050E-04
    892        1      977    5.479452050E-04
    893        1      978    5.479452050E-04
    894        1      979    5.479452050E-04
    895        1      980    5.479452050E-04
    896        1      981    5.479452050E-04
    897        1      982    5.479452050E-04
    898        1      983    5.479452050E-04
    899        1      984    5.479452050E-04
    900        1      985    5.479452050E-04
    901        1      986    5.479452050E-04
    902        1      987    5.479452050E-04
    903        1      988    5.479452050E-04
    904        1      989    5.479452050E-04
    905        1      990    5.479452050E-04
    906        1      991    5.479452050E-04
    907        1      992    5.479452050E-04
    908        1      993    5.479452050E-04
    909        1      994    5.479452050E-04
    910        1      995    5.479452050E-04
    911        1      998    5.479452050E-04
    912        1      999    5.479452050E-04
    913        1     1000    5.479452050E-04
    914        1     1001    5.479452050E-04
    915        1     1002    5.479452050E-04
    916        1     1003    5.479452050E-04
    917        1     1004    5.479452050E-04
    918        1     1005    5.479452050E-04
    919        1     1006    5.479452050E-04
    920        1     1007    5.479452050E-04
    921        1     1008    5.479452050E-04
    922        1     1009    5.479452050E-04
    923        1     1010    5.479452050E-04
    924        1     1011    5.479452050E-04
    925        1     1012    5.479452050E-04
    926        1     1013    5.479452050E-04
    927        1     1014    5.479452050E-04
    928        1     1015    5.479452050E-04
    929        1     1016    5.479452050E-04
    930        1     1017    5.479452050E-04
    931        1     1018    5.479452050E-04
    932        1     1019    5.479452050E-04
    933        1     1020    5.479452050E-04
    934        1     1021    5.479452050E-04
    935        1     1022    5.479452050E-04
    936        1     1023    5.479452050E-04
    937        1     1024    5.479452050E-04
    938        1     1025    5.479452050E-04
    939        1     1026    5.479452050E-04
    940        1     1027    5.479452050E-04
    941        1     1028    5.479452050E-04
    942        1     1029    5.479452050E-04
    943        1     1030    5.479452050E-04
    944        1     1031    5.479452050E-04
    945        1     1032    5.479452050E-04
    946        1     1033    5.479452050E-04
    947        1     1034    5.479452050E-04
    948        1     1035    5.479452050E-04
    949        1     1036    5.479452050E-04
    950        1     1037    5.479452050E-04
    951        1     1038    5.479452050E-04
    952        1     1039    5.479452050E-04
    953        1     1040    5.479452050E-04
    954        1     1041    5.479452050E-04
    955        1     1042    5.479452050E-04
    956        1     1043    5.479452050E-04
    957        1     1044    5.479452050E-04
    958        1     1045    5.479452050E-04
    959        1     1046    5.479452050E-04
    960        1     1047    5.479452050E-04
    961        1     1048    5.479452050E-04
    962        1     1049    5.479452050E-04
    963        1     1050    5.479452050E-04
    964        1     1051    5.479452050E-04
    965        1     1052    5.479452050E-04
    966        1     1053    5.479452050E-04
    967        1     1054    5.479452050E-04
    968        1     1055    5.479452050E-04
    969        1     1056    5.479452050E-04
    970        1     1057    5.479452050E-04
    971        1     1058    5.479452050E-04
    972        1     1059    5.479452050E-04
    973        1     1060    5.479452050E-04
    974        1     1061    5.479452050E-04
    975        1     1062    5.479452050E-04
    976        1     1063    5.479452050E-04
    977        1     1064    5.479452050E-04
    978        1     1065    5.479452050E-04
    979        1     1066    5.479452050E-04
    980        1     1067    5.479452050E-04
    981        1     1068    5.479452050E-04
    982        1     1069    5.479452050E-04
    983        1     1070    5.479452050E-04
    984        1     1071    5.479452050E-04
    985        1     1072    5.479452050E-04
    986        1     1073    5.479452050E-04
    987        1     1074    5.479452050E-04
    988        1     1075    5.479452050E-04
    989        1     1078    5.479452050E-04
    990        1     1079    5.479452050E-04
    991        1     1080    5.479452050E-04
    992        1     1081    5.479452050E-04
    993        1     1082    5.479452050E-04
    994        1     1083    5.479452050E-04
    995        1     1084    5.479452050E-04
    996        1     1085    5.479452050E-04
    997        1     1086    5.479452050E-04
    998        1     1087    5.479452050E-04
    999        1     1088    5.479452050E-04
    1000       1     1089    5.479452050E-04
    1001       1     1090    5.479452050E-04
    1002       1     1091    5.479452050E-04
    1003       1     1092    5.479452050E-04
    1004       1     1093    5.479452050E-04
    1005       1     1094    5.479452050E-04
    1006       1     1095    5.479452050E-04
    1007       1     1096    5.479452050E-04
    1008       1     1097    5.479452050E-04
    1009       1     1098    5.479452050E-04
    1010       1     1099    5.479452050E-04
    1011       1     1100    5.479452050E-04
    1012       1     1101    5.479452050E-04
    1013       1     1102    5.479452050E-04
    1014       1     1103    5.479452050E-04
    1015       1     1104    5.479452050E-04
    1016       1     1105    5.479452050E-04
    1017       1     1106    5.479452050E-04
    1018       1     1107    5.479452050E-04
    1019       1     1108    5.479452050E-04
    1020       1     1109    5.479452050E-04
    1021       1     1110    5.479452050E-04
    1022       1     1111    5.479452050E-04
    1023       1     1112    5.479452050E-04
    1024       1     1113    5.479452050E-04
    1025       1     1114    5.479452050E-04
    1026       1     1115    5.479452050E-04
    1027       1     1116    5.479452050E-04
    1028       1     1117    5.479452050E-04
    1029       1     1118    5.479452050E-04
    1030       1     1119    5.479452050E-04
    1031       1     1120    5.479452050E-04
    1032       1     1121    5.479452050E-04
    1033       1     1122    5.479452050E-04
    1034       1     1123    5.479452050E-04
    1035       1     1124    5.479452050E-04
    1036       1     1125    5.479452050E-04
    1037       1     1126    5.479452050E-04
    1038       1     1127    5.479452050E-04
    1039       1     1128    5.479452050E-04
    1040       1     1129    5.479452050E-04
    1041       1     1130    5.479452050E-04
    1042       1     1131    5.479452050E-04
    1043       1     1132    5.479452050E-04
    1044       1     1133    5.479452050E-04
    1045       1     1134    5.479452050E-04
    1046       1     1135    5.479452050E-04
    1047       1     1136    5.479452050E-04
    1048       1     1137    5.479452050E-04
    1049       1     1138    5.479452050E-04
    1050       1     1139    5.479452050E-04
    1051       1     1140    5.479452050E-04
    1052       1     1141    5.479452050E-04
    1053       1     1142    5.479452050E-04
    1054       1     1143    5.479452050E-04
    1055       1     1144    5.479452050E-04
    1056       1     1145    5.479452050E-04
    1057       1     1146    5.479452050E-04
    1058       1     1147    5.479452050E-04
    1059       1     1148    5.479452050E-04
    1060       1     1149    5.479452050E-04
    1061       1     1150    5.479452050E-04
    1062       1     1151    5.479452050E-04
    1063       1     1152    5.479452050E-04
    1064       1     1153    5.479452050E-04
    1065       1     1154    5.479452050E-04
    1066       1     1155    5.479452050E-04
    1067       1     1158    5.479452050E-04
    1068       1     1159    5.479452050E-04
    1069       1     1160    5.479452050E-04
    1070       1     1161    5.479452050E-04
    1071       1     1162    5.479452050E-04
    1072       1     1163    5.479452050E-04
    1073       1     1164    5.479452050E-04
    1074       1     1165    5.479452050E-04
    1075       1     1166    5.479452050E-04
    1076       1     1167    5.479452050E-04
    1077       1     1168    5.479452050E-04
    1078       1     1169    5.479452050E-04
    1079       1     1170    5.479452050E-04
    1080       1     1171    5.479452050E-04
    1081       1     1172    5.479452050E-04
    1082       1     1173    5.479452050E-04
    1083       1     1174    5.479452050E-04
    1084       1     1175    5.479452050E-04
    1085       1     1176    5.479452050E-04
    1086       1     1177    5.479452050E-04
    1087       1     1178    5.479452050E-04
    1088       1     1179    5.479452050E-04
    1089       1     1180    5.479452050E-04
    1090       1     1181    5.479452050E-04
    1091       1     1182    5.479452050E-04
    1092       1     1183    5.479452050E-04
    1093       1     1184    5.479452050E-04
    1094       1     1185    5.479452050E-04
    1095       1     1186    5.479452050E-04
    1096       1     1187    5.479452050E-04
    1097       1     1188    5.479452050E-04
    1098       1     1189    5.479452050E-04
    1099       1     1190    5.479452050E-04
    1100       1     1191    5.479452050E-04
    1101       1     1192    5.479452050E-04
    1102       1     1193    5.479452050E-04
    1103       1     1194    5.479452050E-04
    1104       1     1195    5.479452050E-04
    1105       1     1196    5.479452050E-04
    1106       1     1197    5.479452050E-04
    1107       1     1198    5.479452050E-04
    1108       1     1199    5.479452050E-04
    1109       1     1200    5.479452050E-04
    1110       1     1201    5.479452050E-04
    1111       1     1202    5.479452050E-04
    1112       1     1203    5.479452050E-04
    1113       1     1204    5.479452050E-04
    1114       1     1205    5.479452050E-04
    1115       1     1206    5.479452050E-04
    1116       1     1207    5.479452050E-04
    1117       1     1208    5.479452050E-04
    1118       1     1209    5.479452050E-04
    1119       1     1210    5.479452050E-04
    1120       1     1211    5.479452050E-04
    1121       1     1212    5.479452050E-04
    1122       1     1213    5.479452050E-04
    1123       1     1214    5.479452050E-04
    1124       1     1215    5.479452050E-04
    1125       1     1216    5.479452050E-04
    1126       1     1217    5.479452050E-04
    1127       1     1218    5.479452050E-04
    1128       1     1219    5.479452050E-04
    1129       1     1220    5.479452050E-04
    1130       1     1221    5.479452050E-04
    1131       1     1222    5.479452050E-04
    1132       1     1223    5.479452050E-04
    1133       1     1224    5.479452050E-04
    1134       1     1225    5.479452050E-04
    1135       1     1226    5.479452050E-04
    1136       1     1227    5.479452050E-04
    1137       1     1228    5.479452050E-04
    1138       1     1229    5.479452050E-04
    1139       1     1230    5.479452050E-04
    1140       1     1231    5.479452050E-04
    1141       1     1232    5.479452050E-04
    1142       1     1233    5.479452050E-04
    1143       1     1234    5.479452050E-04
    1144       1     1235    5.479452050E-04
    1145       1     1236    5.479452050E-04
    1146       1     1237    5.479452050E-04
    1147       1     1238    5.479452050E-04
    1148       1     1241    5.479452050E-04
    1149       1     1242    5.479452050E-04
    1150       1     1243    5.479452050E-04
    1151       1     1244    5.479452050E-04
    1152       1     1245    5.479452050E-04
    1153       1     1246    5.479452050E-04
    1154       1     1247    5.479452050E-04
    1155       1     1248    5.479452050E-04
    1156       1     1249    5.479452050E-04
    1157       1     1250    5.479452050E-04
    1158       1     1251    5.479452050E-04
    1159       1     1252    5.479452050E-04
    1160       1     1253    5.479452050E-04
    1161       1     1254    5.479452050E-04
    1162       1     1255    5.479452050E-04
    1163       1     1256    5.479452050E-04
    1164       1     1257    5.479452050E-04
    1165       1     1258    5.479452050E-04
    1166       1     1259    5.479452050E-04
    1167       1     1260    5.479452050E-04
    1168       1     1261    5.479452050E-04
    1169       1     1262    5.479452050E-04
    1170       1     1263    5.479452050E-04
    1171       1     1264    5.479452050E-04
    1172       1     1265    5.479452050E-04
    1173       1     1266    5.479452050E-04
    1174       1     1267    5.479452050E-04
    1175       1     1268    5.479452050E-04
    1176       1     1269    5.479452050E-04
    1177       1     1270    5.479452050E-04
    1178       1     1271    5.479452050E-04
    1179       1     1272    5.479452050E-04
    1180       1     1273    5.479452050E-04
    1181       1     1274    5.479452050E-04
    1182       1     1275    5.479452050E-04
    1183       1     1276    5.479452050E-04
    1184       1     1277    5.479452050E-04
    1185       1     1278    5.479452050E-04
    1186       1     1279    5.479452050E-04
    1187       1     1280    5.479452050E-04
    1188       1     1281    5.479452050E-04
    1189       1     1282    5.479452050E-04
    1190       1     1283    5.479452050E-04
    1191       1     1284    5.479452050E-04
    1192       1     1285    5.479452050E-04
    1193       1     1286    5.479452050E-04
    1194       1     1287    5.479452050E-04
    1195       1     1288    5.479452050E-04
    1196       1     1289    5.479452050E-04
    1197       1     1290    5.479452050E-04
    1198       1     1291    5.479452050E-04
    1199       1     1292    5.479452050E-04
    1200       1     1293    5.479452050E-04
    1201       1     1294    5.479452050E-04
    1202       1     1295    5.479452050E-04
    1203       1     1296    5.479452050E-04
    1204       1     1297    5.479452050E-04
    1205       1     1298    5.479452050E-04
    1206       1     1299    5.479452050E-04
    1207       1     1300    5.479452050E-04
    1208       1     1301    5.479452050E-04
    1209       1     1302    5.479452050E-04
    1210       1     1303    5.479452050E-04
    1211       1     1304    5.479452050E-04
    1212       1     1305    5.479452050E-04
    1213       1     1306    5.479452050E-04
    1214       1     1307    5.479452050E-04
    1215       1     1308    5.479452050E-04
    1216       1     1309    5.479452050E-04
    1217       1     1310    5.479452050E-04
    1218       1     1311    5.479452050E-04
    1219       1     1312    5.479452050E-04
    1220       1     1313    5.479452050E-04
    1221       1     1314    5.479452050E-04
    1222       1     1315    5.479452050E-04
    1223       1     1316    5.479452050E-04
    1224       1     1317    5.479452050E-04
    1225       1     1318    5.479452050E-04
    1226       1     1320    5.479452050E-04
    1227       1     1321    5.479452050E-04
    1228       1     1322    5.479452050E-04
    1229       1     1323    5.479452050E-04
    1230       1     1324    5.479452050E-04
    1231       1     1325    5.479452050E-04
    1232       1     1326    5.479452050E-04
    1233       1     1327    5.479452050E-04
    1234       1     1328    5.479452050E-04
    1235       1     1329    5.479452050E-04
    1236       1     1330    5.479452050E-04
    1237       1     1331    5.479452050E-04
    1238       1     1332    5.479452050E-04
    1239       1     1333    5.479452050E-04
    1240       1     1334    5.479452050E-04
    1241       1     1335    5.479452050E-04
    1242       1     1336    5.479452050E-04
    1243       1     1337    5.479452050E-04
    1244       1     1338    5.479452050E-04
    1245       1     1339    5.479452050E-04
    1246       1     1340    5.479452050E-04
    1247       1     1341    5.479452050E-04
    1248       1     1342    5.479452050E-04
    1249       1     1343    5.479452050E-04
    1250       1     1344    5.479452050E-04
    1251       1     1345    5.479452050E-04
    1252       1     1346    5.479452050E-04
    1253       1     1347    5.479452050E-04
    1254       1     1348    5.479452050E-04
    1255       1     1349    5.479452050E-04
    1256       1     1350    5.479452050E-04
    1257       1     1351    5.479452050E-04
    1258       1     1352    5.479452050E-04
    1259       1     1353    5.479452050E-04
    1260       1     1354    5.479452050E-04
    1261       1     1355    5.479452050E-04
    1262       1     1356    5.479452050E-04
    1263       1     1357    5.479452050E-04
    1264       1     1358    5.479452050E-04
    1265       1     1359    5.479452050E-04
    1266       1     1360    5.479452050E-04
    1267       1     1361    5.479452050E-04
    1268       1     1362    5.479452050E-04
    1269       1     1363    5.479452050E-04
    1270       1     1364    5.479452050E-04
    1271       1     1365    5.479452050E-04
    1272       1     1366    5.479452050E-04
    1273       1     1367    5.479452050E-04
    1274       1     1368    5.479452050E-04
    1275       1     1369    5.479452050E-04
    1276       1     1370    5.479452050E-04
    1277       1     1371    5.479452050E-04
    1278       1     1372    5.479452050E-04
    1279       1     1373    5.479452050E-04
    1280       1     1374    5.479452050E-04
    1281       1     1375    5.479452050E-04
    1282       1     1376    5.479452050E-04
    1283       1     1377    5.479452050E-04
    1284       1     1378    5.479452050E-04
    1285       1     1379    5.479452050E-04
    1286       1     1380    5.479452050E-04
    1287       1     1381    5.479452050E-04
    1288       1     1382    5.479452050E-04
    1289       1     1383    5.479452050E-04
    1290       1     1384    5.479452050E-04
    1291       1     1385    5.479452050E-04
    1292       1     1386    5.479452050E-04
    1293       1     1387    5.479452050E-04
    1294       1     1388    5.479452050E-04
    1295       1     1389    5.479452050E-04
    1296       1     1390    5.479452050E-04
    1297       1     1391    5.479452050E-04
    1298       1     1392    5.479452050E-04
    1299       1     1393    5.479452050E-04
    1300       1     1394    5.479452050E-04
    1301       1     1395    5.479452050E-04
    1302       1     1396    5.479452050E-04
    1303       1     1397    5.479452050E-04
    1304       1     1400    5.479452050E-04
    1305       1     1401    5.479452050E-04
    1306       1     1402    5.479452050E-04
    1307       1     1403    5.479452050E-04
    1308       1     1404    5.479452050E-04
    1309       1     1405    5.479452050E-04
    1310       1     1406    5.479452050E-04
    1311       1     1407    5.479452050E-04
    1312       1     1408    5.479452050E-04
    1313       1     1409    5.479452050E-04
    1314       1     1410    5.479452050E-04
    1315       1     1411    5.479452050E-04
    1316       1     1412    5.479452050E-04
    1317       1     1413    5.479452050E-04
    1318       1     1414    5.479452050E-04
    1319       1     1415    5.479452050E-04
    1320       1     1416    5.479452050E-04
    1321       1     1417    5.479452050E-04
    1322       1     1418    5.479452050E-04
    1323       1     1419    5.479452050E-04
    1324       1     1420    5.479452050E-04
    1325       1     1421    5.479452050E-04
    1326       1     1422    5.479452050E-04
    1327       1     1423    5.479452050E-04
    1328       1     1424    5.479452050E-04
    1329       1     1425    5.479452050E-04
    1330       1     1426    5.479452050E-04
    1331       1     1427    5.479452050E-04
    1332       1     1428    5.479452050E-04
    1333       1     1429    5.479452050E-04
    1334       1     1430    5.479452050E-04
    1335       1     1431    5.479452050E-04
    1336       1     1432    5.479452050E-04
    1337       1     1433    5.479452050E-04
    1338       1     1434    5.479452050E-04
    1339       1     1435    5.479452050E-04
    1340       1     1436    5.479452050E-04
    1341       1     1437    5.479452050E-04
    1342       1     1438    5.479452050E-04
    1343       1     1439    5.479452050E-04
    1344       1     1440    5.479452050E-04
    1345       1     1441    5.479452050E-04
    1346       1     1442    5.479452050E-04
    1347       1     1443    5.479452050E-04
    1348       1     1444    5.479452050E-04
    1349       1     1445    5.479452050E-04
    1350       1     1446    5.479452050E-04
    1351       1     1447    5.479452050E-04
    1352       1     1448    5.479452050E-04
    1353       1     1449    5.479452050E-04
    1354       1     1450    5.479452050E-04
    1355       1     1451    5.479452050E-04
    1356       1     1452    5.479452050E-04
    1357       1     1453    5.479452050E-04
    1358       1     1454    5.479452050E-04
    1359       1     1455    5.479452050E-04
    1360       1     1456    5.479452050E-04
    1361       1     1457    5.479452050E-04
    1362       1     1458    5.479452050E-04
    1363       1     1459    5.479452050E-04
    1364       1     1460    5.479452050E-04
    1365       1     1461    5.479452050E-04
    1366       1     1462    5.479452050E-04
    1367       1     1463    5.479452050E-04
    1368       1     1464    5.479452050E-04
    1369       1     1465    5.479452050E-04
    1370       1     1466    5.479452050E-04
    1371       1     1467    5.479452050E-04
    1372       1     1468    5.479452050E-04
    1373       1     1469    5.479452050E-04
    1374       1     1470    5.479452050E-04
    1375       1     1471    5.479452050E-04
    1376       1     1472    5.479452050E-04
    1377       1     1473    5.479452050E-04
    1378       1     1474    5.479452050E-04
    1379       1     1475    5.479452050E-04
    1380       1     1476    5.479452050E-04
    1381       1     1477    5.479452050E-04
    1382       1     1478    5.479452050E-04
    1383       1     1479    5.479452050E-04
    1384       1     1480    5.479452050E-04
    1385       1     1481    5.479452050E-04
    1386       1     1482    5.479452050E-04
    1387       1     1483    5.479452050E-04
    1388       1     1484    5.479452050E-04
    1389       1     1487    5.479452050E-04
    1390       1     1488    5.479452050E-04
    1391       1     1489    5.479452050E-04
    1392       1     1490    5.479452050E-04
    1393       1     1491    5.479452050E-04
    1394       1     1492    5.479452050E-04
    1395       1     1493    5.479452050E-04
    1396       1     1494    5.479452050E-04
    1397       1     1495    5.479452050E-04
    1398       1     1496    5.479452050E-04
    1399       1     1497    5.479452050E-04
    1400       1     1498    5.479452050E-04
    1401       1     1499    5.479452050E-04
    1402       1     1500    5.479452050E-04
    1403       1     1501    5.479452050E-04
    1404       1     1502    5.479452050E-04
    1405       1     1503    5.479452050E-04
    1406       1     1504    5.479452050E-04
    1407       1     1505    5.479452050E-04
    1408       1     1506    5.479452050E-04
    1409       1     1507    5.479452050E-04
    1410       1     1508    5.479452050E-04
    1411       1     1509    5.479452050E-04
    1412       1     1510    5.479452050E-04
    1413       1     1511    5.479452050E-04
    1414       1     1512    5.479452050E-04
    1415       1     1513    5.479452050E-04
    1416       1     1514    5.479452050E-04
    1417       1     1515    5.479452050E-04
    1418       1     1516    5.479452050E-04
    1419       1     1517    5.479452050E-04
    1420       1     1518    5.479452050E-04
    1421       1     1519    5.479452050E-04
    1422       1     1520    5.479452050E-04
    1423       1     1521    5.479452050E-04
    1424       1     1522    5.479452050E-04
    1425       1     1523    5.479452050E-04
    1426       1     1524    5.479452050E-04
    1427       1     1525    5.479452050E-04
    1428       1     1526    5.479452050E-04
    1429       1     1527    5.479452050E-04
    1430       1     1528    5.479452050E-04
    1431       1     1529    5.479452050E-04
    1432       1     1530    5.479452050E-04
    1433       1     1531    5.479452050E-04
    1434       1     1532    5.479452050E-04
    1435       1     1533    5.479452050E-04
    1436       1     1534    5.479452050E-04
    1437       1     1535    5.479452050E-04
    1438       1     1536    5.479452050E-04
    1439       1     1537    5.479452050E-04
    1440       1     1538    5.479452050E-04
    1441       1     1539    5.479452050E-04
    1442       1     1540    5.479452050E-04
    1443       1     1541    5.479452050E-04
    1444       1     1542    5.479452050E-04
    1445       1     1543    5.479452050E-04
    1446       1     1544    5.479452050E-04
    1447       1     1545    5.479452050E-04
    1448       1     1546    5.479452050E-04
    1449       1     1547    5.479452050E-04
    1450       1     1548    5.479452050E-04
    1451       1     1549    5.479452050E-04
    1452       1     1550    5.479452050E-04
    1453       1     1551    5.479452050E-04
    1454       1     1552    5.479452050E-04
    1455       1     1553    5.479452050E-04
    1456       1     1554    5.479452050E-04
    1457       1     1555    5.479452050E-04
    1458       1     1556    5.479452050E-04
    1459       1     1557    5.479452050E-04
    1460       1     1558    5.479452050E-04
    1461       1     1559    5.479452050E-04
    1462       1     1560    5.479452050E-04
    1463       1     1561    5.479452050E-04
    1464       1     1562    5.479452050E-04
    1465       1     1563    5.479452050E-04
    1466       1     1564    5.479452050E-04
    1467       1     1565    5.479452050E-04
    1468       1     1566    5.479452050E-04
    1469       1     1567    5.479452050E-04
    1470       1     1568    5.479452050E-04
    1471       1     1569    5.479452050E-04
    1472       1     1570    5.479452050E-04
    1473       1     1571    5.479452050E-04
    1474       1     1572    5.479452050E-04
    1475       1     1573    5.479452050E-04
    1476       1     1574    5.479452050E-04
    1477       1     1575    5.479452050E-04
    1478       1     1576    5.479452050E-04
    1479       1     1577    5.479452050E-04
    1480       1     1578    5.479452050E-04
    1481       1     1579    5.479452050E-04
    1482       1     1582    5.479452050E-04
    1483       1     1583    5.479452050E-04
    1484       1     1584    5.479452050E-04
    1485       1     1585    5.479452050E-04
    1486       1     1586    5.479452050E-04
    1487       1     1587    5.479452050E-04
    1488       1     1588    5.479452050E-04
    1489       1     1589    5.479452050E-04
    1490       1     1590    5.479452050E-04
    1491       1     1591    5.479452050E-04
    1492       1     1592    5.479452050E-04
    1493       1     1593    5.479452050E-04
    1494       1     1594    5.479452050E-04
    1495       1     1595    5.479452050E-04
    1496       1     1596    5.479452050E-04
    1497       1     1597    5.479452050E-04
    1498       1     1598    5.479452050E-04
    1499       1     1599    5.479452050E-04
    1500       1     1600    5.479452050E-04
    1501       1     1601    5.479452050E-04
    1502       1     1602    5.479452050E-04
    1503       1     1603    5.479452050E-04
    1504       1     1604    5.479452050E-04
    1505       1     1605    5.479452050E-04
    1506       1     1606    5.479452050E-04
    1507       1     1607    5.479452050E-04
    1508       1     1608    5.479452050E-04
    1509       1     1609    5.479452050E-04
    1510       1     1610    5.479452050E-04
    1511       1     1611    5.479452050E-04
    1512       1     1612    5.479452050E-04
    1513       1     1613    5.479452050E-04
    1514       1     1614    5.479452050E-04
    1515       1     1615    5.479452050E-04
    1516       1     1616    5.479452050E-04
    1517       1     1617    5.479452050E-04
    1518       1     1618    5.479452050E-04
    1519       1     1619    5.479452050E-04
    1520       1     1620    5.479452050E-04
    1521       1     1621    5.479452050E-04
    1522       1     1622    5.479452050E-04
    1523       1     1623    5.479452050E-04
    1524       1     1624    5.479452050E-04
    1525       1     1625    5.479452050E-04
    1526       1     1626    5.479452050E-04
    1527       1     1627    5.479452050E-04
    1528       1     1628    5.479452050E-04
    1529       1     1629    5.479452050E-04
    1530       1     1630    5.479452050E-04
    1531       1     1631    5.479452050E-04
    1532       1     1632    5.479452050E-04
    1533       1     1633    5.479452050E-04
    1534       1     1634    5.479452050E-04
    1535       1     1635    5.479452050E-04
    1536       1     1636    5.479452050E-04
    1537       1     1637    5.479452050E-04
    1538       1     1638    5.479452050E-04
    1539       1     1639    5.479452050E-04
    1540       1     1640    5.479452050E-04
    1541       1     1641    5.479452050E-04
    1542       1     1642    5.479452050E-04
    1543       1     1643    5.479452050E-04
    1544       1     1644    5.479452050E-04
    1545       1     1645    5.479452050E-04
    1546       1     1646    5.479452050E-04
    1547       1     1647    5.479452050E-04
    1548       1     1648    5.479452050E-04
    1549       1     1649    5.479452050E-04
    1550       1     1650    5.479452050E-04
    1551       1     1651    5.479452050E-04
    1552       1     1652    5.479452050E-04
    1553       1     1653    5.479452050E-04
    1554       1     1654    5.479452050E-04
    1555       1     1655    5.479452050E-04
    1556       1     1656    5.479452050E-04
    1557       1     1657    5.479452050E-04
    1558       1     1658    5.479452050E-04
    1559       1     1659    5.479452050E-04
    1560       1     1660    5.479452050E-04
    1561       1     1661    5.479452050E-04
    1562       1     1662    5.479452050E-04
    1563       1     1663    5.479452050E-04
    1564       1     1664    5.479452050E-04
    1565       1     1665    5.479452050E-04
    1566       1     1666    5.479452050E-04
    1567       1     1667    5.479452050E-04
    1568       1     1668    5.479452050E-04
    1569       1     1669    5.479452050E-04
    1570       1     1670    5.479452050E-04
    1571       1     1671    5.479452050E-04
    1572       1     1672    5.479452050E-04
    1573       1     1673    5.479452050E-04
    1574       1     1674    5.479452050E-04
    1575       1     1675    5.479452050E-04
    1576       1     1676    5.479452050E-04
    1577       1     1677    5.479452050E-04
    1578       1     1678    5.479452050E-04
    1579       1     1679    5.479452050E-04
    1580       1     1680    5.479452050E-04
    1581       1     1681    5.479452050E-04
    1582       1     1682    5.479452050E-04
    1583       1     1683    5.479452050E-04
    1584       1     1684    5.479452050E-04
    1585       1     1685    5.479452050E-04
    1586       1     1686    5.479452050E-04
    1587       1     1687    5.479452050E-04
    1588       1     1688    5.479452050E-04
    1589       1     1689    5.479452050E-04
    1590       1     1690    5.479452050E-04
    1591       1     1691    5.479452050E-04
    1592       1     1694    5.479452050E-04
    1593       1     1695    5.479452050E-04
    1594       1     1696    5.479452050E-04
    1595       1     1697    5.479452050E-04
    1596       1     1698    5.479452050E-04
    1597       1     1699    5.479452050E-04
    1598       1     1700    5.479452050E-04
    1599       1     1701    5.479452050E-04
    1600       1     1702    5.479452050E-04
    1601       1     1703    5.479452050E-04
    1602       1     1704    5.479452050E-04
    1603       1     1705    5.479452050E-04
    1604       1     1706    5.479452050E-04
    1605       1     1707    5.479452050E-04
    1606       1     1708    5.479452050E-04
    1607       1     1709    5.479452050E-04
    1608       1     1710    5.479452050E-04
    1609       1     1711    5.479452050E-04
    1610       1     1712    5.479452050E-04
    1611       1     1713    5.479452050E-04
    1612       1     1714    5.479452050E-04
    1613       1     1715    5.479452050E-04
    1614       1     1716    5.479452050E-04
    1615       1     1717    5.479452050E-04
    1616       1     1718    5.479452050E-04
    1617       1     1719    5.479452050E-04
    1618       1     1720    5.479452050E-04
    1619       1     1721    5.479452050E-04
    1620       1     1722    5.479452050E-04
    1621       1     1723    5.479452050E-04
    1622       1     1724    5.479452050E-04
    1623       1     1725    5.479452050E-04
    1624       1     1726    5.479452050E-04
    1625       1     1727    5.479452050E-04
    1626       1     1728    5.479452050E-04
    1627       1     1729    5.479452050E-04
    1628       1     1730    5.479452050E-04
    1629       1     1731    5.479452050E-04
    1630       1     1732    5.479452050E-04
    1631       1     1733    5.479452050E-04
    1632       1     1734    5.479452050E-04
    1633       1     1735    5.479452050E-04
    1634       1     1736    5.479452050E-04
    1635       1     1737    5.479452050E-04
    1636       1     1738    5.479452050E-04
    1637       1     1739    5.479452050E-04
    1638       1     1740    5.479452050E-04
    1639       1     1741    5.479452050E-04
    1640       1     1742    5.479452050E-04
    1641       1     1743    5.479452050E-04
    1642       1     1744    5.479452050E-04
    1643       1     1745    5.479452050E-04
    1644       1     1746    5.479452050E-04
    1645       1     1747    5.479452050E-04
    1646       1     1748    5.479452050E-04
    1647       1     1749    5.479452050E-04
    1648       1     1750    5.479452050E-04
    1649       1     1751    5.479452050E-04
    1650       1     1752    5.479452050E-04
    1651       1     1753    5.479452050E-04
    1652       1     1754    5.479452050E-04
    1653       1     1755    5.479452050E-04
    1654       1     1756    5.479452050E-04
    1655       1     1757    5.479452050E-04
    1656       1     1758    5.479452050E-04
    1657       1     1759    5.479452050E-04
    1658       1     1760    5.479452050E-04
    1659       1     1761    5.479452050E-04
    1660       1     1762    5.479452050E-04
    1661       1     1763    5.479452050E-04
    1662       1     1764    5.479452050E-04
    1663       1     1765    5.479452050E-04
    1664       1     1766    5.479452050E-04
    1665       1     1767    5.479452050E-04
    1666       1     1768    5.479452050E-04
    1667       1     1769    5.479452050E-04
    1668       1     1770    5.479452050E-04
    1669       1     1771    5.479452050E-04
    1670       1     1772    5.479452050E-04
    1671       1     1773    5.479452050E-04
    1672       1     1774    5.479452050E-04
    1673       1     1775    5.479452050E-04
    1674       1     1778    5.479452050E-04
    1675       1     1779    5.479452050E-04
    1676       1     1780    5.479452050E-04
    1677       1     1781    5.479452050E-04
    1678       1     1782    5.479452050E-04
    1679       1     1783    5.479452050E-04
    1680       1     1784    5.479452050E-04
    1681       1     1785    5.479452050E-04
    1682       1     1786    5.479452050E-04
    1683       1     1787    5.479452050E-04
    1684       1     1788    5.479452050E-04
    1685       1     1789    5.479452050E-04
    1686       1     1790    5.479452050E-04
    1687       1     1791    5.479452050E-04
    1688       1     1792    5.479452050E-04
    1689       1     1793    5.479452050E-04
    1690       1     1794    5.479452050E-04
    1691       1     1795    5.479452050E-04
    1692       1     1796    5.479452050E-04
    1693       1     1797    5.479452050E-04
    1694       1     1798    5.479452050E-04
    1695       1     1799    5.479452050E-04
    1696       1     1800    5.479452050E-04
    1697       1     1801    5.479452050E-04
    1698       1     1802    5.479452050E-04
    1699       1     1803    5.479452050E-04
    1700       1     1804    5.479452050E-04
    1701       1     1805    5.479452050E-04
    1702       1     1806    5.479452050E-04
    1703       1     1807    5.479452050E-04
    1704       1     1808    5.479452050E-04
    1705       1     1809    5.479452050E-04
    1706       1     1810    5.479452050E-04
    1707       1     1811    5.479452050E-04
    1708       1     1812    5.479452050E-04
    1709       1     1813    5.479452050E-04
    1710       1     1814    5.479452050E-04
    1711       1     1815    5.479452050E-04
    1712       1     1816    5.479452050E-04
    1713       1     1817    5.479452050E-04
    1714       1     1818    5.479452050E-04
    1715       1     1819    5.479452050E-04
    1716       1     1820    5.479452050E-04
    1717       1     1821    5.479452050E-04
    1718       1     1822    5.479452050E-04
    1719       1     1823    5.479452050E-04
    1720       1     1824    5.479452050E-04
    1721       1     1825    5.479452050E-04
    1722       1     1826    5.479452050E-04
    1723       1     1827    5.479452050E-04
    1724       1     1828    5.479452050E-04
    1725       1     1829    5.479452050E-04
    1726       1     1830    5.479452050E-04
    1727       1     1831    5.479452050E-04
    1728       1     1832    5.479452050E-04
    1729       1     1833    5.479452050E-04
    1730       1     1834    5.479452050E-04
    1731       1     1835    5.479452050E-04
    1732       1     1836    5.479452050E-04
    1733       1     1837    5.479452050E-04
    1734       1     1838    5.479452050E-04
    1735       1     1839    5.479452050E-04
    1736       1     1840    5.479452050E-04
    1737       1     1841    5.479452050E-04
    1738       1     1842    5.479452050E-04
    1739       1     1843    5.479452050E-04
    1740       1     1844    5.479452050E-04
    1741       1     1845    5.479452050E-04
    1742       1     1846    5.479452050E-04
    1743       1     1847    5.479452050E-04
    1744       1     1848    5.479452050E-04
    1745       1     1849    5.479452050E-04
    1746       1     1850    5.479452050E-04
    1747       1     1851    5.479452050E-04
    1748       1     1852    5.479452050E-04
    1749       1     1855    5.479452050E-04
    1750       1     1856    5.479452050E-04
    1751       1     1857    5.479452050E-04
    1752       1     1858    5.479452050E-04
    1753       1     1859    5.479452050E-04
    1754       1     1860    5.479452050E-04
    1755       1     1861    5.479452050E-04
    1756       1     1862    5.479452050E-04
    1757       1     1863    5.479452050E-04
    1758       1     1864    5.479452050E-04
    1759       1     1865    5.479452050E-04
    1760       1     1866    5.479452050E-04
    1761       1     1867    5.479452050E-04
    1762       1     1868    5.479452050E-04
    1763       1     1869    5.479452050E-04
    1764       1     1870    5.479452050E-04
    1765       1     1871    5.479452050E-04
    1766       1     1872    5.479452050E-04
    1767       1     1873    5.479452050E-04
    1768       1     1874    5.479452050E-04
    1769       1     1875    5.479452050E-04
    1770       1     1876    5.479452050E-04
    1771       1     1877    5.479452050E-04
    1772       1     1878    5.479452050E-04
    1773       1     1879    5.479452050E-04
    1774       1     1880    5.479452050E-04
    1775       1     1881    5.479452050E-04
    1776       1     1882    5.479452050E-04
    1777       1     1883    5.479452050E-04
    1778       1     1884    5.479452050E-04
    1779       1     1885    5.479452050E-04
    1780       1     1886    5.479452050E-04
    1781       1     1887    5.479452050E-04
    1782       1     1888    5.479452050E-04
    1783       1     1889    5.479452050E-04
    1784       1     1890    5.479452050E-04
    1785       1     1891    5.479452050E-04
    1786       1     1892    5.479452050E-04
    1787       1     1893    5.479452050E-04
    1788       1     1894    5.479452050E-04
    1789       1     1895    5.479452050E-04
    1790       1     1896    5.479452050E-04
    1791       1     1897    5.479452050E-04
    1792       1     1898    5.479452050E-04
    1793       1     1899    5.479452050E-04
    1794       1     1900    5.479452050E-04
    1795       1     1901    5.479452050E-04
    1796       1     1902    5.479452050E-04
    1797       1     1903    5.479452050E-04
    1798       1     1904    5.479452050E-04
    1799       1     1905    5.479452050E-04
    1800       1     1906    5.479452050E-04
    1801       1     1907    5.479452050E-04
    1802       1     1908    5.479452050E-04
    1803       1     1909    5.479452050E-04
    1804       1     1910    5.479452050E-04
    1805       1     1911    5.479452050E-04
    1806       1     1912    5.479452050E-04
    1807       1     1913    5.479452050E-04
    1808       1     1914    5.479452050E-04
    1809       1     1915    5.479452050E-04
    1810       1     1916    5.479452050E-04
    1811       1     1917    5.479452050E-04
    1812       1     1918    5.479452050E-04
    1813       1     1919    5.479452050E-04
    1814       1     1920    5.479452050E-04
    1815       1     1921    5.479452050E-04
    1816       1     1922    5.479452050E-04
    1817       1     1923    5.479452050E-04
    1818       1     1924    5.479452050E-04
    1819       1     1925    5.479452050E-04
    1820       1     1926    5.479452050E-04
    1821       1     1927    5.479452050E-04
    1822       1     1928    5.479452050E-04
    1823       1     1931    5.479452050E-04
    1824       1     1932    5.479452050E-04
    1825       1     1933    5.479452050E-04
    1826       1     1934    5.479452050E-04
    1827       1     1935    5.479452050E-04
    1828       1     1936    5.479452050E-04
    1829       1     1937    5.479452050E-04
    1830       1     1938    5.479452050E-04
    1831       1     1939    5.479452050E-04
    1832       1     1940    5.479452050E-04
    1833       1     1941    5.479452050E-04
    1834       1     1942    5.479452050E-04
    1835       1     1943    5.479452050E-04
    1836       1     1944    5.479452050E-04
    1837       1     1945    5.479452050E-04
    1838       1     1946    5.479452050E-04
    1839       1     1947    5.479452050E-04
    1840       1     1948    5.479452050E-04
    1841       1     1949    5.479452050E-04
    1842       1     1950    5.479452050E-04
    1843       1     1951    5.479452050E-04
    1844       1     1952    5.479452050E-04
    1845       1     1953    5.479452050E-04
    1846       1     1954    5.479452050E-04
    1847       1     1955    5.479452050E-04
    1848       1     1956    5.479452050E-04
    1849       1     1957    5.479452050E-04
    1850       1     1958    5.479452050E-04
    1851       1     1959    5.479452050E-04
    1852       1     1960    5.479452050E-04
    1853       1     1961    5.479452050E-04
    1854       1     1962    5.479452050E-04
    1855       1     1963    5.479452050E-04
    1856       1     1964    5.479452050E-04
    1857       1     1965    5.479452050E-04
    1858       1     1966    5.479452050E-04
    1859       1     1967    5.479452050E-04
    1860       1     1968    5.479452050E-04
    1861       1     1969    5.479452050E-04
    1862       1     1970    5.479452050E-04
    1863       1     1971    5.479452050E-04
    1864       1     1972    5.479452050E-04
    1865       1     1973    5.479452050E-04
    1866       1     1974    5.479452050E-04
    1867       1     1975    5.479452050E-04
    1868       1     1976    5.479452050E-04
    1869       1     1977    5.479452050E-04
    1870       1     1978    5.479452050E-04
    1871       1     1979    5.479452050E-04
    1872       1     1980    5.479452050E-04
    1873       1     1981    5.479452050E-04
    1874       1     1982    5.479452050E-04
    1875       1     1983    5.479452050E-04
    1876       1     1984    5.479452050E-04
    1877       1     1985    5.479452050E-04
    1878       1     1986    5.479452050E-04
    1879       1     1987    5.479452050E-04
    1880       1     1988    5.479452050E-04
    1881       1     1989    5.479452050E-04
    1882       1     1990    5.479452050E-04
    1883       1     1991    5.479452050E-04
    1884       1     1992    5.479452050E-04
    1885       1     1993    5.479452050E-04
    1886       1     1994    5.479452050E-04
    1887       1     1995    5.479452050E-04
    1888       1     1996    5.479452050E-04
    1889       1     1997    5.479452050E-04
    1890       1     1998    5.479452050E-04
    1891       1     1999    5.479452050E-04
    1892       1     2000    5.479452050E-04
    1893       1     2001    5.479452050E-04
    1894       1     2002    5.479452050E-04
    1895       1     2003    5.479452050E-04
    1896       1     2006    5.479452050E-04
    1897       1     2007    5.479452050E-04
    1898       1     2008    5.479452050E-04
    1899       1     2009    5.479452050E-04
    1900       1     2010    5.479452050E-04
    1901       1     2011    5.479452050E-04
    1902       1     2012    5.479452050E-04
    1903       1     2013    5.479452050E-04
    1904       1     2014    5.479452050E-04
    1905       1     2015    5.479452050E-04
    1906       1     2016    5.479452050E-04
    1907       1     2017    5.479452050E-04
    1908       1     2018    5.479452050E-04
    1909       1     2019    5.479452050E-04
    1910       1     2020    5.479452050E-04
    1911       1     2021    5.479452050E-04
    1912       1     2022    5.479452050E-04
    1913       1     2023    5.479452050E-04
    1914       1     2024    5.479452050E-04
    1915       1     2025    5.479452050E-04
    1916       1     2026    5.479452050E-04
    1917       1     2027    5.479452050E-04
    1918       1     2028    5.479452050E-04
    1919       1     2029    5.479452050E-04
    1920       1     2030    5.479452050E-04
    1921       1     2031    5.479452050E-04
    1922       1     2032    5.479452050E-04
    1923       1     2033    5.479452050E-04
    1924       1     2034    5.479452050E-04
    1925       1     2035    5.479452050E-04
    1926       1     2036    5.479452050E-04
    1927       1     2037    5.479452050E-04
    1928       1     2038    5.479452050E-04
    1929       1     2039    5.479452050E-04
    1930       1     2040    5.479452050E-04
    1931       1     2041    5.479452050E-04
    1932       1     2042    5.479452050E-04
    1933       1     2043    5.479452050E-04
    1934       1     2044    5.479452050E-04
    1935       1     2045    5.479452050E-04
    1936       1     2046    5.479452050E-04
    1937       1     2047    5.479452050E-04
    1938       1     2048    5.479452050E-04
    1939       1     2049    5.479452050E-04
    1940       1     2050    5.479452050E-04
    1941       1     2051    5.479452050E-04
    1942       1     2052    5.479452050E-04
    1943       1     2053    5.479452050E-04
    1944       1     2054    5.479452050E-04
    1945       1     2055    5.479452050E-04
    1946       1     2056    5.479452050E-04
    1947       1     2057    5.479452050E-04
    1948       1     2058    5.479452050E-04
    1949       1     2059    5.479452050E-04
    1950       1     2060    5.479452050E-04
    1951       1     2061    5.479452050E-04
    1952       1     2062    5.479452050E-04
    1953       1     2063    5.479452050E-04
    1954       1     2064    5.479452050E-04
    1955       1     2065    5.479452050E-04
    1956       1     2066    5.479452050E-04
    1957       1     2067    5.479452050E-04
    1958       1     2068    5.479452050E-04
    1959       1     2069    5.479452050E-04
    1960       1     2070    5.479452050E-04
    1961       1     2071    5.479452050E-04
    1962       1     2072    5.479452050E-04
    1963       1     2073    5.479452050E-04
    1964       1     2074    5.479452050E-04
    1965       1     2077    5.479452050E-04
    1966       1     2078    5.479452050E-04
    1967       1     2079    5.479452050E-04
    1968       1     2080    5.479452050E-04
    1969       1     2081    5.479452050E-04
    1970       1     2082    5.479452050E-04
    1971       1     2083    5.479452050E-04
    1972       1     2084    5.479452050E-04
    1973       1     2085    5.479452050E-04
    1974       1     2086    5.479452050E-04
    1975       1     2087    5.479452050E-04
    1976       1     2088    5.479452050E-04
    1977       1     2089    5.479452050E-04
    1978       1     2090    5.479452050E-04
    1979       1     2091    5.479452050E-04
    1980       1     2092    5.479452050E-04
    1981       1     2093    5.479452050E-04
    1982       1     2094    5.479452050E-04
    1983       1     2095    5.479452050E-04
    1984       1     2096    5.479452050E-04
    1985       1     2097    5.479452050E-04
    1986       1     2098    5.479452050E-04
    1987       1     2099    5.479452050E-04
    1988       1     2100    5.479452050E-04
    1989       1     2101    5.479452050E-04
    1990       1     2102    5.479452050E-04
    1991       1     2103    5.479452050E-04
    1992       1     2104    5.479452050E-04
    1993       1     2105    5.479452050E-04
    1994       1     2106    5.479452050E-04
    1995       1     2107    5.479452050E-04
    1996       1     2108    5.479452050E-04
    1997       1     2109    5.479452050E-04
    1998       1     2110    5.479452050E-04
    1999       1     2111    5.479452050E-04
    2000       1     2112    5.479452050E-04
    2001       1     2113    5.479452050E-04
    2002       1     2114    5.479452050E-04
    2003       1     2115    5.479452050E-04
    2004       1     2116    5.479452050E-04
    2005       1     2117    5.479452050E-04
    2006       1     2118    5.479452050E-04
    2007       1     2119    5.479452050E-04
    2008       1     2120    5.479452050E-04
    2009       1     2121    5.479452050E-04
    2010       1     2122    5.479452050E-04
    2011       1     2123    5.479452050E-04
    2012       1     2124    5.479452050E-04
    2013       1     2125    5.479452050E-04
    2014       1     2126    5.479452050E-04
    2015       1     2127    5.479452050E-04
    2016       1     2128    5.479452050E-04
    2017       1     2129    5.479452050E-04
    2018       1     2130    5.479452050E-04
    2019       1     2131    5.479452050E-04
    2020       1     2132    5.479452050E-04
    2021       1     2133    5.479452050E-04
    2022       1     2134    5.479452050E-04
    2023       1     2135    5.479452050E-04
    2024       1     2136    5.479452050E-04
    2025       1     2137    5.479452050E-04
    2026       1     2138    5.479452050E-04
    2027       1     2139    5.479452050E-04
    2028       1     2140    5.479452050E-04
    2029       1     2141    5.479452050E-04
    2030       1     2142    5.479452050E-04
    2031       1     2143    5.479452050E-04
    2032       1     2144    5.479452050E-04
    2033       1     2147    5.479452050E-04
    2034       1     2148    5.479452050E-04
    2035       1     2149    5.479452050E-04
    2036       1     2150    5.479452050E-04
    2037       1     2151    5.479452050E-04
    2038       1     2152    5.479452050E-04
    2039       1     2153    5.479452050E-04
    2040       1     2154    5.479452050E-04
    2041       1     2155    5.479452050E-04
    2042       1     2156    5.479452050E-04
    2043       1     2157    5.479452050E-04
    2044       1     2158    5.479452050E-04
    2045       1     2159    5.479452050E-04
    2046       1     2160    5.479452050E-04
    2047       1     2161    5.479452050E-04
    2048       1     2162    5.479452050E-04
    2049       1     2163    5.479452050E-04
    2050       1     2164    5.479452050E-04
    2051       1     2165    5.479452050E-04
    2052       1     2166    5.479452050E-04
    2053       1     2167    5.479452050E-04
    2054       1     2168    5.479452050E-04
    2055       1     2169    5.479452050E-04
    2056       1     2170    5.479452050E-04
    2057       1     2171    5.479452050E-04
    2058       1     2172    5.479452050E-04
    2059       1     2173    5.479452050E-04
    2060       1     2174    5.479452050E-04
    2061       1     2175    5.479452050E-04
    2062       1     2176    5.479452050E-04
    2063       1     2177    5.479452050E-04
    2064       1     2178    5.479452050E-04
    2065       1     2179    5.479452050E-04
    2066       1     2180    5.479452050E-04
    2067       1     2181    5.479452050E-04
    2068       1     2182    5.479452050E-04
    2069       1     2183    5.479452050E-04
    2070       1     2184    5.479452050E-04
    2071       1     2185    5.479452050E-04
    2072       1     2186    5.479452050E-04
    2073       1     2187    5.479452050E-04
    2074       1     2188    5.479452050E-04
    2075       1     2189    5.479452050E-04
    2076       1     2190    5.479452050E-04
    2077       1     2191    5.479452050E-04
    2078       1     2192    5.479452050E-04
    2079       1     2193    5.479452050E-04
    2080       1     2194    5.479452050E-04
    2081       1     2195    5.479452050E-04
    2082       1     2196    5.479452050E-04
    2083       1     2197    5.479452050E-04
    2084       1     2198    5.479452050E-04
    2085       1     2199    5.479452050E-04
    2086       1     2200    5.479452050E-04
    2087       1     2201    5.479452050E-04
    2088       1     2202    5.479452050E-04
    2089       1     2203    5.479452050E-04
    2090       1     2204    5.479452050E-04
    2091       1     2205    5.479452050E-04
    2092       1     2206    5.479452050E-04
    2093       1     2207    5.479452050E-04
    2094       1     2208    5.479452050E-04
    2095       1     2209    5.479452050E-04
    2096       1     2210    5.479452050E-04
    2097       1     2211    5.479452050E-04
    2098       1     2212    5.479452050E-04
    2099       1     2213    5.479452050E-04
    2100       1     2216    5.479452050E-04
    2101       1     2217    5.479452050E-04
    2102       1     2218    5.479452050E-04
    2103       1     2219    5.479452050E-04
    2104       1     2220    5.479452050E-04
    2105       1     2221    5.479452050E-04
    2106       1     2222    5.479452050E-04
    2107       1     2223    5.479452050E-04
    2108       1     2224    5.479452050E-04
    2109       1     2225    5.479452050E-04
    2110       1     2226    5.479452050E-04
    2111       1     2227    5.479452050E-04
    2112       1     2228    5.479452050E-04
    2113       1     2229    5.479452050E-04
    2114       1     2230    5.479452050E-04
    2115       1     2231    5.479452050E-04
    2116       1     2232    5.479452050E-04
    2117       1     2233    5.479452050E-04
    2118       1     2234    5.479452050E-04
    2119       1     2235    5.479452050E-04
    2120       1     2236    5.479452050E-04
    2121       1     2237    5.479452050E-04
    2122       1     2238    5.479452050E-04
    2123       1     2239    5.479452050E-04
    2124       1     2240    5.479452050E-04
    2125       1     2241    5.479452050E-04
    2126       1     2242    5.479452050E-04
    2127       1     2243    5.479452050E-04
    2128       1     2244    5.479452050E-04
    2129       1     2245    5.479452050E-04
    2130       1     2246    5.479452050E-04
    2131       1     2247    5.479452050E-04
    2132       1     2248    5.479452050E-04
    2133       1     2249    5.479452050E-04
    2134       1     2250    5.479452050E-04
    2135       1     2251    5.479452050E-04
    2136       1     2252    5.479452050E-04
    2137       1     2253    5.479452050E-04
    2138       1     2254    5.479452050E-04
    2139       1     2255    5.479452050E-04
    2140       1     2256    5.479452050E-04
    2141       1     2257    5.479452050E-04
    2142       1     2258    5.479452050E-04
    2143       1     2259    5.479452050E-04
    2144       1     2260    5.479452050E-04
    2145       1     2261    5.479452050E-04
    2146       1     2262    5.479452050E-04
    2147       1     2263    5.479452050E-04
    2148       1     2264    5.479452050E-04
    2149       1     2265    5.479452050E-04
    2150       1     2266    5.479452050E-04
    2151       1     2267    5.479452050E-04
    2152       1     2268    5.479452050E-04
    2153       1     2269    5.479452050E-04
    2154       1     2270    5.479452050E-04
    2155       1     2271    5.479452050E-04
    2156       1     2272    5.479452050E-04
    2157       1     2273    5.479452050E-04
    2158       1     2274    5.479452050E-04
    2159       1     2275    5.479452050E-04
    2160       1     2276    5.479452050E-04
    2161       1     2277    5.479452050E-04
    2162       1     2278    5.479452050E-04
    2163       1     2279    5.479452050E-04
    2164       1     2280    5.479452050E-04
    2165       1     2281    5.479452050E-04
    2166       1     2282    5.479452050E-04
    2167       1     2283    5.479452050E-04
    2168       1     2284    5.479452050E-04
    2169       1     2285    5.479452050E-04
    2170       1     2286    5.479452050E-04
    2171       1     2287    5.479452050E-04
    2172       1     2288    5.479452050E-04
    2173       1     2289    5.479452050E-04
    2174       1     2290    5.479452050E-04
    2175       1     2291    5.479452050E-04
    2176       1     2292    5.479452050E-04
    2177       1     2293    5.479452050E-04
    2178       1     2294    5.479452050E-04
    2179       1     2295    5.479452050E-04
    2180       1     2296    5.479452050E-04
    2181       1     2297    5.479452050E-04
    2182       1     2298    5.479452050E-04
    2183       1     2299    5.479452050E-04
    2184       1     2300    5.479452050E-04
    2185       1     2301    5.479452050E-04
    2186       1     2302    5.479452050E-04
    2187       1     2303    5.479452050E-04
    2188       1     2304    5.479452050E-04
    2189       1     2305    5.479452050E-04
    2190       1     2306    5.479452050E-04
    2191       1     2307    5.479452050E-04
    2192       1     2308    5.479452050E-04
    2193       1     2311    5.479452050E-04
    2194       1     2312    5.479452050E-04
    2195       1     2313    5.479452050E-04
    2196       1     2314    5.479452050E-04
    2197       1     2315    5.479452050E-04
    2198       1     2316    5.479452050E-04
    2199       1     2317    5.479452050E-04
    2200       1     2318    5.479452050E-04
    2201       1     2319    5.479452050E-04
    2202       1     2320    5.479452050E-04
    2203       1     2321    5.479452050E-04
    2204       1     2322    5.479452050E-04
    2205       1     2323    5.479452050E-04
    2206       1     2324    5.479452050E-04
    2207       1     2325    5.479452050E-04
    2208       1     2326    5.479452050E-04
    2209       1     2327    5.479452050E-04
    2210       1     2328    5.479452050E-04
    2211       1     2329    5.479452050E-04
    2212       1     2330    5.479452050E-04
    2213       1     2331    5.479452050E-04
    2214       1     2332    5.479452050E-04
    2215       1     2333    5.479452050E-04
    2216       1     2334    5.479452050E-04
    2217       1     2335    5.479452050E-04
    2218       1     2336    5.479452050E-04
    2219       1     2337    5.479452050E-04
    2220       1     2338    5.479452050E-04
    2221       1     2339    5.479452050E-04
    2222       1     2340    5.479452050E-04
    2223       1     2341    5.479452050E-04
    2224       1     2342    5.479452050E-04
    2225       1     2343    5.479452050E-04
    2226       1     2344    5.479452050E-04
    2227       1     2345    5.479452050E-04
    2228       1     2346    5.479452050E-04
    2229       1     2347    5.479452050E-04
    2230       1     2348    5.479452050E-04
    2231       1     2349    5.479452050E-04
    2232       1     2350    5.479452050E-04
    2233       1     2351    5.479452050E-04
    2234       1     2352    5.479452050E-04
    2235       1     2353    5.479452050E-04
    2236       1     2354    5.479452050E-04
    2237       1     2355    5.479452050E-04
    2238       1     2356    5.479452050E-04
    2239       1     2357    5.479452050E-04
    2240       1     2358    5.479452050E-04
    2241       1     2359    5.479452050E-04
    2242       1     2360    5.479452050E-04
    2243       1     2361    5.479452050E-04
    2244       1     2362    5.479452050E-04
    2245       1     2363    5.479452050E-04
    2246       1     2364    5.479452050E-04
    2247       1     2365    5.479452050E-04
    2248       1     2366    5.479452050E-04
    2249       1     2367    5.479452050E-04
    2250       1     2368    5.479452050E-04
    2251       1     2369    5.479452050E-04
    2252       1     2370    5.479452050E-04
    2253       1     2371    5.479452050E-04
    2254       1     2372    5.479452050E-04
    2255       1     2373    5.479452050E-04
    2256       1     2374    5.479452050E-04
    2257       1     2375    5.479452050E-04
    2258       1     2376    5.479452050E-04
    2259       1     2377    5.479452050E-04
    2260       1     2378    5.479452050E-04
    2261       1     2379    5.479452050E-04
    2262       1     2380    5.479452050E-04
    2263       1     2381    5.479452050E-04
    2264       1     2382    5.479452050E-04
    2265       1     2383    5.479452050E-04
    2266       1     2384    5.479452050E-04
    2267       1     2385    5.479452050E-04
    2268       1     2386    5.479452050E-04
    2269       1     2387    5.479452050E-04
    2270       1     2388    5.479452050E-04
    2271       1     2389    5.479452050E-04
    2272       1     2390    5.479452050E-04
    2273       1     2391    5.479452050E-04
    2274       1     2392    5.479452050E-04
    2275       1     2393    5.479452050E-04
    2276       1     2394    5.479452050E-04
    2277       1     2395    5.479452050E-04
    2278       1     2396    5.479452050E-04
    2279       1     2397    5.479452050E-04
    2280       1     2398    5.479452050E-04
    2281       1     2399    5.479452050E-04
    2282       1     2400    5.479452050E-04
    2283       1     2401    5.479452050E-04
    2284       1     2402    5.479452050E-04
    2285       1     2405    5.479452050E-04
    2286       1     2406    5.479452050E-04
    2287       1     2407    5.479452050E-04
    2288       1     2408    5.479452050E-04
    2289       1     2409    5.479452050E-04
    2290       1     2410    5.479452050E-04
    2291       1     2411    5.479452050E-04
    2292       1     2412    5.479452050E-04
    2293       1     2413    5.479452050E-04
    2294       1     2414    5.479452050E-04
    2295       1     2415    5.479452050E-04
    2296       1     2416    5.479452050E-04
    2297       1     2417    5.479452050E-04
    2298       1     2418    5.479452050E-04
    2299       1     2419    5.479452050E-04
    2300       1     2420    5.479452050E-04
    2301       1     2421    5.479452050E-04
    2302       1     2422    5.479452050E-04
    2303       1     2423    5.479452050E-04
    2304       1     2424    5.479452050E-04
    2305       1     2425    5.479452050E-04
    2306       1     2426    5.479452050E-04
    2307       1     2427    5.479452050E-04
    2308       1     2428    5.479452050E-04
    2309       1     2429    5.479452050E-04
    2310       1     2430    5.479452050E-04
    2311       1     2431    5.479452050E-04
    2312       1     2432    5.479452050E-04
    2313       1     2433    5.479452050E-04
    2314       1     2434    5.479452050E-04
    2315       1     2435    5.479452050E-04
    2316       1     2436    5.479452050E-04
    2317       1     2437    5.479452050E-04
    2318       1     2438    5.479452050E-04
    2319       1     2439    5.479452050E-04
    2320       1     2440    5.479452050E-04
    2321       1     2441    5.479452050E-04
    2322       1     2442    5.479452050E-04
    2323       1     2443    5.479452050E-04
    2324       1     2444    5.479452050E-04
    2325       1     2445    5.479452050E-04
    2326       1     2446    5.479452050E-04
    2327       1     2447    5.479452050E-04
    2328       1     2448    5.479452050E-04
    2329       1     2449    5.479452050E-04
    2330       1     2450    5.479452050E-04
    2331       1     2451    5.479452050E-04
    2332       1     2452    5.479452050E-04
    2333       1     2453    5.479452050E-04
    2334       1     2454    5.479452050E-04
    2335       1     2455    5.479452050E-04
    2336       1     2456    5.479452050E-04
    2337       1     2457    5.479452050E-04
    2338       1     2458    5.479452050E-04
    2339       1     2459    5.479452050E-04
    2340       1     2460    5.479452050E-04
    2341       1     2461    5.479452050E-04
    2342       1     2462    5.479452050E-04
    2343       1     2463    5.479452050E-04
    2344       1     2464    5.479452050E-04
    2345       1     2465    5.479452050E-04
    2346       1     2466    5.479452050E-04
    2347       1     2467    5.479452050E-04
    2348       1     2468    5.479452050E-04
    2349       1     2469    5.479452050E-04
    2350       1     2470    5.479452050E-04
    2351       1     2471    5.479452050E-04
    2352       1     2472    5.479452050E-04
    2353       1     2473    5.479452050E-04
    2354       1     2474    5.479452050E-04
    2355       1     2475    5.479452050E-04
    2356       1     2476    5.479452050E-04
    2357       1     2477    5.479452050E-04
    2358       1     2478    5.479452050E-04
    2359       1     2479    5.479452050E-04
    2360       1     2480    5.479452050E-04
    2361       1     2481    5.479452050E-04
    2362       1     2482    5.479452050E-04
    2363       1     2483    5.479452050E-04
    2364       1     2484    5.479452050E-04
    2365       1     2485    5.479452050E-04
    2366       1     2486    5.479452050E-04
    2367       1     2489    5.479452050E-04
    2368       1     2490    5.479452050E-04
    2369       1     2491    5.479452050E-04
    2370       1     2492    5.479452050E-04
    2371       1     2493    5.479452050E-04
    2372       1     2494    5.479452050E-04
    2373       1     2495    5.479452050E-04
    2374       1     2496    5.479452050E-04
    2375       1     2497    5.479452050E-04
    2376       1     2498    5.479452050E-04
    2377       1     2499    5.479452050E-04
    2378       1     2500    5.479452050E-04
    2379       1     2501    5.479452050E-04
    2380       1     2502    5.479452050E-04
    2381       1     2503    5.479452050E-04
    2382       1     2504    5.479452050E-04
    2383       1     2505    5.479452050E-04
    2384       1     2506    5.479452050E-04
    2385       1     2507    5.479452050E-04
    2386       1     2508    5.479452050E-04
    2387       1     2509    5.479452050E-04
    2388       1     2510    5.479452050E-04
    2389       1     2511    5.479452050E-04
    2390       1     2512    5.479452050E-04
    2391       1     2513    5.479452050E-04
    2392       1     2514    5.479452050E-04
    2393       1     2515    5.479452050E-04
    2394       1     2516    5.479452050E-04
    2395       1     2517    5.479452050E-04
    2396       1     2518    5.479452050E-04
    2397       1     2519    5.479452050E-04
    2398       1     2520    5.479452050E-04
    2399       1     2521    5.479452050E-04
    2400       1     2522    5.479452050E-04
    2401       1     2523    5.479452050E-04
    2402       1     2524    5.479452050E-04
    2403       1     2525    5.479452050E-04
    2404       1     2526    5.479452050E-04
    2405       1     2527    5.479452050E-04
    2406       1     2528    5.479452050E-04
    2407       1     2529    5.479452050E-04
    2408       1     2530    5.479452050E-04
    2409       1     2531    5.479452050E-04
    2410       1     2532    5.479452050E-04
    2411       1     2533    5.479452050E-04
    2412       1     2534    5.479452050E-04
    2413       1     2535    5.479452050E-04
    2414       1     2536    5.479452050E-04
    2415       1     2537    5.479452050E-04
    2416       1     2538    5.479452050E-04
    2417       1     2539    5.479452050E-04
    2418       1     2540    5.479452050E-04
    2419       1     2541    5.479452050E-04
    2420       1     2542    5.479452050E-04
    2421       1     2543    5.479452050E-04
    2422       1     2544    5.479452050E-04
    2423       1     2545    5.479452050E-04
    2424       1     2546    5.479452050E-04
    2425       1     2547    5.479452050E-04
    2426       1     2548    5.479452050E-04
    2427       1     2549    5.479452050E-04
    2428       1     2550    5.479452050E-04
    2429       1     2551    5.479452050E-04
    2430       1     2552    5.479452050E-04
    2431       1     2553    5.479452050E-04
    2432       1     2554    5.479452050E-04
    2433       1     2555    5.479452050E-04
    2434       1     2556    5.479452050E-04
    2435       1     2557    5.479452050E-04
    2436       1     2558    5.479452050E-04
    2437       1     2559    5.479452050E-04
    2438       1     2560    5.479452050E-04
    2439       1     2561    5.479452050E-04
    2440       1     2562    5.479452050E-04
    2441       1     2563    5.479452050E-04
    2442       1     2567    5.479452050E-04
    2443       1     2568    5.479452050E-04
    2444       1     2569    5.479452050E-04
    2445       1     2570    5.479452050E-04
    2446       1     2571    5.479452050E-04
    2447       1     2572    5.479452050E-04
    2448       1     2573    5.479452050E-04
    2449       1     2574    5.479452050E-04
    2450       1     2575    5.479452050E-04
    2451       1     2576    5.479452050E-04
    2452       1     2577    5.479452050E-04
    2453       1     2578    5.479452050E-04
    2454       1     2579    5.479452050E-04
    2455       1     2580    5.479452050E-04
    2456       1     2581    5.479452050E-04
    2457       1     2582    5.479452050E-04
    2458       1     2583    5.479452050E-04
    2459       1     2584    5.479452050E-04
    2460       1     2585    5.479452050E-04
    2461       1     2586    5.479452050E-04
    2462       1     2587    5.479452050E-04
    2463       1     2588    5.479452050E-04
    2464       1     2589    5.479452050E-04
    2465       1     2590    5.479452050E-04
    2466       1     2591    5.479452050E-04
    2467       1     2592    5.479452050E-04
    2468       1     2593    5.479452050E-04
    2469       1     2594    5.479452050E-04
    2470       1     2595    5.479452050E-04
    2471       1     2596    5.479452050E-04
    2472       1     2597    5.479452050E-04
    2473       1     2598    5.479452050E-04
    2474       1     2599    5.479452050E-04
    2475       1     2600    5.479452050E-04
    2476       1     2601    5.479452050E-04
    2477       1     2602    5.479452050E-04
    2478       1     2603    5.479452050E-04
    2479       1     2604    5.479452050E-04
    2480       1     2605    5.479452050E-04
    2481       1     2606    5.479452050E-04
    2482       1     2607    5.479452050E-04
    2483       1     2608    5.479452050E-04
    2484       1     2609    5.479452050E-04
    2485       1     2610    5.479452050E-04
    2486       1     2611    5.479452050E-04
    2487       1     2612    5.479452050E-04
    2488       1     2613    5.479452050E-04
    2489       1     2614    5.479452050E-04
    2490       1     2615    5.479452050E-04
    2491       1     2616    5.479452050E-04
    2492       1     2617    5.479452050E-04
    2493       1     2618    5.479452050E-04
    2494       1     2619    5.479452050E-04
    2495       1     2620    5.479452050E-04
    2496       1     2621    5.479452050E-04
    2497       1     2622    5.479452050E-04
    2498       1     2623    5.479452050E-04
    2499       1     2624    5.479452050E-04
    2500       1     2625    5.479452050E-04
    2501       1     2626    5.479452050E-04
    2502       1     2627    5.479452050E-04
    2503       1     2628    5.479452050E-04
    2504       1     2629    5.479452050E-04
    2505       1     2630    5.479452050E-04
    2506       1     2631    5.479452050E-04
    2507       1     2632    5.479452050E-04
    2508       1     2633    5.479452050E-04
    2509       1     2634    5.479452050E-04
    2510       1     2637    5.479452050E-04
    2511       1     2638    5.479452050E-04
    2512       1     2639    5.479452050E-04
    2513       1     2640    5.479452050E-04
    2514       1     2641    5.479452050E-04
    2515       1     2642    5.479452050E-04
    2516       1     2643    5.479452050E-04
    2517       1     2644    5.479452050E-04
    2518       1     2645    5.479452050E-04
    2519       1     2646    5.479452050E-04
    2520       1     2647    5.479452050E-04
    2521       1     2648    5.479452050E-04
    2522       1     2649    5.479452050E-04
    2523       1     2650    5.479452050E-04
    2524       1     2651    5.479452050E-04
    2525       1     2652    5.479452050E-04
    2526       1     2653    5.479452050E-04
    2527       1     2654    5.479452050E-04
    2528       1     2655    5.479452050E-04
    2529       1     2656    5.479452050E-04
    2530       1     2657    5.479452050E-04
    2531       1     2658    5.479452050E-04
    2532       1     2659    5.479452050E-04
    2533       1     2660    5.479452050E-04
    2534       1     2661    5.479452050E-04
    2535       1     2662    5.479452050E-04
    2536       1     2663    5.479452050E-04
    2537       1     2664    5.479452050E-04
    2538       1     2665    5.479452050E-04
    2539       1     2666    5.479452050E-04
    2540       1     2667    5.479452050E-04
    2541       1     2668    5.479452050E-04
    2542       1     2669    5.479452050E-04
    2543       1     2670    5.479452050E-04
    2544       1     2671    5.479452050E-04
    2545       1     2672    5.479452050E-04
    2546       1     2673    5.479452050E-04
    2547       1     2674    5.479452050E-04
    2548       1     2675    5.479452050E-04
    2549       1     2676    5.479452050E-04
    2550       1     2677    5.479452050E-04
    2551       1     2678    5.479452050E-04
    2552       1     2679    5.479452050E-04
    2553       1     2680    5.479452050E-04
    2554       1     2681    5.479452050E-04
    2555       1     2682    5.479452050E-04
    2556       1     2683    5.479452050E-04
    2557       1     2684    5.479452050E-04
    2558       1     2685    5.479452050E-04
    2559       1     2686    5.479452050E-04
    2560       1     2687    5.479452050E-04
    2561       1     2688    5.479452050E-04
    2562       1     2689    5.479452050E-04
    2563       1     2690    5.479452050E-04
    2564       1     2691    5.479452050E-04
    2565       1     2692    5.479452050E-04
    2566       1     2693    5.479452050E-04
    2567       1     2694    5.479452050E-04
    2568       1     2695    5.479452050E-04
    2569       1     2696    5.479452050E-04
    2570       1     2697    5.479452050E-04
    2571       1     2698    5.479452050E-04
    2572       1     2699    5.479452050E-04
    2573       1     2700    5.479452050E-04
    2574       1     2701    5.479452050E-04
    2575       1     2702    5.479452050E-04
    2576       1     2703    5.479452050E-04
    2577       1     2706    5.479452050E-04
    2578       1     2707    5.479452050E-04
    2579       1     2708    5.479452050E-04
    2580       1     2709    5.479452050E-04
    2581       1     2710    5.479452050E-04
    2582       1     2711    5.479452050E-04
    2583       1     2712    5.479452050E-04
    2584       1     2713    5.479452050E-04
    2585       1     2714    5.479452050E-04
    2586       1     2715    5.479452050E-04
    2587       1     2716    5.479452050E-04
    2588       1     2717    5.479452050E-04
    2589       1     2718    5.479452050E-04
    2590       1     2719    5.479452050E-04
    2591       1     2720    5.479452050E-04
    2592       1     2721    5.479452050E-04
    2593       1     2722    5.479452050E-04
    2594       1     2723    5.479452050E-04
    2595       1     2724    5.479452050E-04
    2596       1     2725    5.479452050E-04
    2597       1     2726    5.479452050E-04
    2598       1     2727    5.479452050E-04
    2599       1     2728    5.479452050E-04
    2600       1     2729    5.479452050E-04
    2601       1     2730    5.479452050E-04
    2602       1     2731    5.479452050E-04
    2603       1     2732    5.479452050E-04
    2604       1     2733    5.479452050E-04
    2605       1     2734    5.479452050E-04
    2606       1     2735    5.479452050E-04
    2607       1     2736    5.479452050E-04
    2608       1     2737    5.479452050E-04
    2609       1     2738    5.479452050E-04
    2610       1     2739    5.479452050E-04
    2611       1     2740    5.479452050E-04
    2612       1     2741    5.479452050E-04
    2613       1     2742    5.479452050E-04
    2614       1     2743    5.479452050E-04
    2615       1     2744    5.479452050E-04
    2616       1     2745    5.479452050E-04
    2617       1     2746    5.479452050E-04
    2618       1     2747    5.479452050E-04
    2619       1     2748    5.479452050E-04
    2620       1     2749    5.479452050E-04
    2621       1     2750    5.479452050E-04
    2622       1     2751    5.479452050E-04
    2623       1     2752    5.479452050E-04
    2624       1     2753    5.479452050E-04
    2625       1     2754    5.479452050E-04
    2626       1     2755    5.479452050E-04
    2627       1     2756    5.479452050E-04
    2628       1     2757    5.479452050E-04
    2629       1     2758    5.479452050E-04
    2630       1     2759    5.479452050E-04
    2631       1     2760    5.479452050E-04
    2632       1     2761    5.479452050E-04
    2633       1     2762    5.479452050E-04
    2634       1     2763    5.479452050E-04
    2635       1     2764    5.479452050E-04
    2636       1     2765    5.479452050E-04
    2637       1     2766    5.479452050E-04
    2638       1     2767    5.479452050E-04
    2639       1     2768    5.479452050E-04
    2640       1     2769    5.479452050E-04
    2641       1     2770    5.479452050E-04
    2642       1     2771    5.479452050E-04
    2643       1     2772    5.479452050E-04
    2644       1     2773    5.479452050E-04
    2645       1     2774    5.479452050E-04
    2646       1     2775    5.479452050E-04
    2647       1     2776    5.479452050E-04
    2648       1     2777    5.479452050E-04
    2649       1     2778    5.479452050E-04
    2650       1     2779    5.479452050E-04
    2651       1     2780    5.479452050E-04
    2652       1     2781    5.479452050E-04
    2653       1     2782    5.479452050E-04
    2654       1     2783    5.479452050E-04
    2655       1     2786    5.479452050E-04
    2656       1     2787    5.479452050E-04
    2657       1     2788    5.479452050E-04
    2658       1     2789    5.479452050E-04
    2659       1     2790    5.479452050E-04
    2660       1     2791    5.479452050E-04
    2661       1     2792    5.479452050E-04
    2662       1     2793    5.479452050E-04
    2663       1     2794    5.479452050E-04
    2664       1     2795    5.479452050E-04
    2665       1     2796    5.479452050E-04
    2666       1     2797    5.479452050E-04
    2667       1     2798    5.479452050E-04
    2668       1     2799    5.479452050E-04
    2669       1     2800    5.479452050E-04
    2670       1     2801    5.479452050E-04
    2671       1     2802    5.479452050E-04
    2672       1     2803    5.479452050E-04
    2673       1     2804    5.479452050E-04
    2674       1     2805    5.479452050E-04
    2675       1     2806    5.479452050E-04
    2676       1     2807    5.479452050E-04
    2677       1     2808    5.479452050E-04
    2678       1     2809    5.479452050E-04
    2679       1     2810    5.479452050E-04
    2680       1     2811    5.479452050E-04
    2681       1     2812    5.479452050E-04
    2682       1     2813    5.479452050E-04
    2683       1     2814    5.479452050E-04
    2684       1     2815    5.479452050E-04
    2685       1     2816    5.479452050E-04
    2686       1     2817    5.479452050E-04
    2687       1     2818    5.479452050E-04
    2688       1     2819    5.479452050E-04
    2689       1     2820    5.479452050E-04
    2690       1     2821    5.479452050E-04
    2691       1     2822    5.479452050E-04
    2692       1     2823    5.479452050E-04
    2693       1     2824    5.479452050E-04
    2694       1     2825    5.479452050E-04
    2695       1     2826    5.479452050E-04
    2696       1     2827    5.479452050E-04
    2697       1     2828    5.479452050E-04
    2698       1     2829    5.479452050E-04
    2699       1     2830    5.479452050E-04
    2700       1     2831    5.479452050E-04
    2701       1     2832    5.479452050E-04
    2702       1     2833    5.479452050E-04
    2703       1     2834    5.479452050E-04
    2704       1     2835    5.479452050E-04
    2705       1     2836    5.479452050E-04
    2706       1     2837    5.479452050E-04
    2707       1     2838    5.479452050E-04
    2708       1     2839    5.479452050E-04
    2709       1     2840    5.479452050E-04
    2710       1     2841    5.479452050E-04
    2711       1     2842    5.479452050E-04
    2712       1     2843    5.479452050E-04
    2713       1     2844    5.479452050E-04
    2714       1     2845    5.479452050E-04
    2715       1     2846    5.479452050E-04
    2716       1     2847    5.479452050E-04
    2717       1     2848    5.479452050E-04
    2718       1     2849    5.479452050E-04
    2719       1     2850    5.479452050E-04
    2720       1     2851    5.479452050E-04
    2721       1     2852    5.479452050E-04
    2722       1     2853    5.479452050E-04
    2723       1     2854    5.479452050E-04
    2724       1     2857    5.479452050E-04
    2725       1     2858    5.479452050E-04
    2726       1     2859    5.479452050E-04
    2727       1     2860    5.479452050E-04
    2728       1     2861    5.479452050E-04
    2729       1     2862    5.479452050E-04
    2730       1     2863    5.479452050E-04
    2731       1     2864    5.479452050E-04
    2732       1     2865    5.479452050E-04
    2733       1     2866    5.479452050E-04
    2734       1     2867    5.479452050E-04
    2735       1     2868    5.479452050E-04
    2736       1     2869    5.479452050E-04
    2737       1     2870    5.479452050E-04
    2738       1     2871    5.479452050E-04
    2739       1     2872    5.479452050E-04
    2740       1     2873    5.479452050E-04
    2741       1     2874    5.479452050E-04
    2742       1     2875    5.479452050E-04
    2743       1     2876    5.479452050E-04
    2744       1     2877    5.479452050E-04
    2745       1     2878    5.479452050E-04
    2746       1     2879    5.479452050E-04
    2747       1     2880    5.479452050E-04
    2748       1     2881    5.479452050E-04
    2749       1     2882    5.479452050E-04
    2750       1     2883    5.479452050E-04
    2751       1     2884    5.479452050E-04
    2752       1     2885    5.479452050E-04
    2753       1     2886    5.479452050E-04
    2754       1     2887    5.479452050E-04
    2755       1     2888    5.479452050E-04
    2756       1     2889    5.479452050E-04
    2757       1     2890    5.479452050E-04
    2758       1     2891    5.479452050E-04
    2759       1     2892    5.479452050E-04
    2760       1     2893    5.479452050E-04
    2761       1     2894    5.479452050E-04
    2762       1     2895    5.479452050E-04
    2763       1     2896    5.479452050E-04
    2764       1     2897    5.479452050E-04
    2765       1     2898    5.479452050E-04
    2766       1     2899    5.479452050E-04
    2767       1     2900    5.479452050E-04
    2768       1     2901    5.479452050E-04
    2769       1     2902    5.479452050E-04
    2770       1     2903    5.479452050E-04
    2771       1     2904    5.479452050E-04
    2772       1     2905    5.479452050E-04
    2773       1     2906    5.479452050E-04
    2774       1     2907    5.479452050E-04
    2775       1     2908    5.479452050E-04
    2776       1     2909    5.479452050E-04
    2777       1     2910    5.479452050E-04
    2778       1     2911    5.479452050E-04
    2779       1     2912    5.479452050E-04
    2780       1     2913    5.479452050E-04
    2781       1     2914    5.479452050E-04
    2782       1     2915    5.479452050E-04
    2783       1     2916    5.479452050E-04
    2784       1     2917    5.479452050E-04
    2785       1     2918    5.479452050E-04
    2786       1     2919    5.479452050E-04
    2787       1     2922    5.479452050E-04
    2788       1     2923    5.479452050E-04
    2789       1     2924    5.479452050E-04
    2790       1     2925    5.479452050E-04
    2791       1     2926    5.479452050E-04
    2792       1     2927    5.479452050E-04
    2793       1     2928    5.479452050E-04
    2794       1     2929    5.479452050E-04
    2795       1     2930    5.479452050E-04
    2796       1     2931    5.479452050E-04
    2797       1     2932    5.479452050E-04
    2798       1     2933    5.479452050E-04
    2799       1     2934    5.479452050E-04
    2800       1     2935    5.479452050E-04
    2801       1     2936    5.479452050E-04
    2802       1     2937    5.479452050E-04
    2803       1     2938    5.479452050E-04
    2804       1     2939    5.479452050E-04
    2805       1     2940    5.479452050E-04
    2806       1     2941    5.479452050E-04
    2807       1     2942    5.479452050E-04
    2808       1     2943    5.479452050E-04
    2809       1     2944    5.479452050E-04
    2810       1     2945    5.479452050E-04
    2811       1     2946    5.479452050E-04
    2812       1     2947    5.479452050E-04
    2813       1     2948    5.479452050E-04
    2814       1     2949    5.479452050E-04
    2815       1     2950    5.479452050E-04
    2816       1     2951    5.479452050E-04
    2817       1     2952    5.479452050E-04
    2818       1     2953    5.479452050E-04
    2819       1     2954    5.479452050E-04
    2820       1     2955    5.479452050E-04
    2821       1     2956    5.479452050E-04
    2822       1     2957    5.479452050E-04
    2823       1     2958    5.479452050E-04
    2824       1     2959    5.479452050E-04
    2825       1     2960    5.479452050E-04
    2826       1     2961    5.479452050E-04
    2827       1     2962    5.479452050E-04
    2828       1     2963    5.479452050E-04
    2829       1     2964    5.479452050E-04
    2830       1     2965    5.479452050E-04
    2831       1     2966    5.479452050E-04
    2832       1     2967    5.479452050E-04
    2833       1     2968    5.479452050E-04
    2834       1     2969    5.479452050E-04
    2835       1     2972    5.479452050E-04
    2836       1     2973    5.479452050E-04
    2837       1     2974    5.479452050E-04
    2838       1     2975    5.479452050E-04
    2839       1     2976    5.479452050E-04
    2840       1     2977    5.479452050E-04
    2841       1     2978    5.479452050E-04
    2842       1     2979    5.479452050E-04
    2843       1     2980    5.479452050E-04
    2844       1     2981    5.479452050E-04
    2845       1     2982    5.479452050E-04
    2846       1     2983    5.479452050E-04
    2847       1     2984    5.479452050E-04
    2848       1     2985    5.479452050E-04
    2849       1     2986    5.479452050E-04
    2850       1     2987    5.479452050E-04
    2851       1     2988    5.479452050E-04
    2852       1     2989    5.479452050E-04
    2853       1     2990    5.479452050E-04
    2854       1     2991    5.479452050E-04
    2855       1     2992    5.479452050E-04
    2856       1     2993    5.479452050E-04
    2857       1     2994    5.479452050E-04
    2858       1     2995    5.479452050E-04
    2859       1     2996    5.479452050E-04
    2860       1     2997    5.479452050E-04
    2861       1     2998    5.479452050E-04
    2862       1     2999    5.479452050E-04
    2863       1     3000    5.479452050E-04
    2864       1     3001    5.479452050E-04
    2865       1     3002    5.479452050E-04
    2866       1     3003    5.479452050E-04
    2867       1     3004    5.479452050E-04
    2868       1     3005    5.479452050E-04
    2869       1     3006    5.479452050E-04
    2870       1     3007    5.479452050E-04
    2871       1     3008    5.479452050E-04
    2872       1     3009    5.479452050E-04
    2873       1     3010    5.479452050E-04
    2874       1     3011    5.479452050E-04
    2875       1     3012    5.479452050E-04
    2876       1     3013    5.479452050E-04
    2877       1     3014    5.479452050E-04
    2878       1     3019    5.479452050E-04
    2879       1     3020    5.479452050E-04
    2880       1     3021    5.479452050E-04
    2881       1     3022    5.479452050E-04
    2882       1     3023    5.479452050E-04
    2883       1     3024    5.479452050E-04
    2884       1     3025    5.479452050E-04
    2885       1     3026    5.479452050E-04
    2886       1     3027    5.479452050E-04
    2887       1     3028    5.479452050E-04
    2888       1     3029    5.479452050E-04
    2889       1     3030    5.479452050E-04
    2890       1     3031    5.479452050E-04
    2891       1     3032    5.479452050E-04
    2892       1     3033    5.479452050E-04
    2893       1     3034    5.479452050E-04
    2894       1     3035    5.479452050E-04
    2895       1     3036    5.479452050E-04
    2896       1     3037    5.479452050E-04
    2897       1     3038    5.479452050E-04
    2898       1     3039    5.479452050E-04
    2899       1     3040    5.479452050E-04
    2900       1     3041    5.479452050E-04
    2901       1     3042    5.479452050E-04
    2902       1     3043    5.479452050E-04
    2903       1     3044    5.479452050E-04
    2904       1     3045    5.479452050E-04
    2905       1     3046    5.479452050E-04
    2906       1     3047    5.479452050E-04
    2907       1     3048    5.479452050E-04
    2908       1     3049    5.479452050E-04
    2909       1     3050    5.479452050E-04
    2910       1     3051    5.479452050E-04
    2911       1     3052    5.479452050E-04
    2912       1     3053    5.479452050E-04
    2913       1     3054    5.479452050E-04
    2914       1     3062    5.479452050E-04
    2915       1     3063    5.479452050E-04
    2916       1     3064    5.479452050E-04
    2917       1     3065    5.479452050E-04
    2918       1     3066    5.479452050E-04
    2919       1     3067    5.479452050E-04
    2920       1     3068    5.479452050E-04
    2921       1     3069    5.479452050E-04
    2922       1     3070    5.479452050E-04
    2923       1     3071    5.479452050E-04
    2924       1     3072    5.479452050E-04
    2925       1     3073    5.479452050E-04
    2926       1     3074    5.479452050E-04
    2927       1     3075    5.479452050E-04
    2928       1     3076    5.479452050E-04
    2929       1     3077    5.479452050E-04
    2930       1     3098    5.479452050E-04
    2931       1     3099    5.479452050E-04
    2932       1     3100    5.479452050E-04
    2933       1     3101    5.479452050E-04
    2934       1     3102    5.479452050E-04
    2935       1     3103    5.479452050E-04
    2936       1     3104    5.479452050E-04
    2937       1     3105    5.479452050E-04
    2938       1     3106    5.479452050E-04
    2939       1     3107    5.479452050E-04
    2940       1     3108    5.479452050E-04
    2941       1     3109    5.479452050E-04
    2942       1     3110    5.479452050E-04
    2943       1     3111    5.479452050E-04
    2944       1     3113    5.479452050E-04
    2945       1     3114    5.479452050E-04
    2946       1     3115    5.479452050E-04
    2947       1     3116    5.479452050E-04
    2948       1     3117    5.479452050E-04
    2949       1     3118    5.479452050E-04
    2950       1     3119    5.479452050E-04
    2951       1     3120    5.479452050E-04
    2952       1     3121    5.479452050E-04
    2953       1     3122    5.479452050E-04
    2954       1     3123    5.479452050E-04
    2955       1     3124    5.479452050E-04
 -------------------------------------------



 REUSING SFRS FROM LAST STRESS PERIOD
 UBDSV1 SAVING           STO-SS ON UNIT   1019 AT TIME STEP      1, STRESS PERIOD      2
 UBDSV1 SAVING           STO-SY ON UNIT   1019 AT TIME STEP      1, STRESS PERIOD      2
 UBDSV1 SAVING     FLOW-JA-FACE ON UNIT   1019 AT TIME STEP      1, STRESS PERIOD      2
 UBDSV06 SAVING              GHB IN MODEL EXPERIMENTAL     PACKAGE EXPERIMENTAL    CONNECTED TO MODEL EXPERIMENTAL     PACKAGE GHB              ON UNIT   1019 AT TIME STEP      1, STRESS PERIOD      2
 UBDSV06 SAVING              RCH IN MODEL EXPERIMENTAL     PACKAGE EXPERIMENTAL    CONNECTED TO MODEL EXPERIMENTAL     PACKAGE RCH              ON UNIT   1019 AT TIME STEP      1, STRESS PERIOD      2
 UBDSV06 SAVING              SFR IN MODEL EXPERIMENTAL     PACKAGE EXPERIMENTAL    CONNECTED TO MODEL EXPERIMENTAL     PACKAGE SFR              ON UNIT   1019 AT TIME STEP      1, STRESS PERIOD      2
 UBDSV06 SAVING     FLOW-JA-FACE IN MODEL EXPERIMENTAL     PACKAGE SFR             CONNECTED TO MODEL EXPERIMENTAL     PACKAGE SFR              ON UNIT   1015 AT TIME STEP      1, STRESS PERIOD      2
 UBDSV06 SAVING              GWF IN MODEL EXPERIMENTAL     PACKAGE SFR             CONNECTED TO MODEL EXPERIMENTAL     PACKAGE EXPERIMENTAL     ON UNIT   1015 AT TIME STEP      1, STRESS PERIOD      2
 UBDSV06 SAVING         RAINFALL IN MODEL EXPERIMENTAL     PACKAGE SFR             CONNECTED TO MODEL EXPERIMENTAL     PACKAGE SFR              ON UNIT   1015 AT TIME STEP      1, STRESS PERIOD      2
 UBDSV06 SAVING      EVAPORATION IN MODEL EXPERIMENTAL     PACKAGE SFR             CONNECTED TO MODEL EXPERIMENTAL     PACKAGE SFR              ON UNIT   1015 AT TIME STEP      1, STRESS PERIOD      2
 UBDSV06 SAVING           RUNOFF IN MODEL EXPERIMENTAL     PACKAGE SFR             CONNECTED TO MODEL EXPERIMENTAL     PACKAGE SFR              ON UNIT   1015 AT TIME STEP      1, STRESS PERIOD      2
 UBDSV06 SAVING       EXT-INFLOW IN MODEL EXPERIMENTAL     PACKAGE SFR             CONNECTED TO MODEL EXPERIMENTAL     PACKAGE SFR              ON UNIT   1015 AT TIME STEP      1, STRESS PERIOD      2
 UBDSV06 SAVING      EXT-OUTFLOW IN MODEL EXPERIMENTAL     PACKAGE SFR             CONNECTED TO MODEL EXPERIMENTAL     PACKAGE SFR              ON UNIT   1015 AT TIME STEP      1, STRESS PERIOD      2
 UBDSV06 SAVING          STORAGE IN MODEL EXPERIMENTAL     PACKAGE SFR             CONNECTED TO MODEL EXPERIMENTAL     PACKAGE SFR              ON UNIT   1015 AT TIME STEP      1, STRESS PERIOD      2
1
  HEAD IN LAYER   1 AT END OF TIME STEP   1 IN STRESS PERIOD    2
  ---------------------------------------------------------------------------

                1               2               3               4               5               6               7               8               9              10
               11              12              13              14              15              16              17              18              19              20
               21              22              23              24              25              26              27              28              29              30
               31              32              33              34              35              36              37              38              39              40
               41              42              43              44              45              46              47              48              49              50
               51              52              53              54              55              56              57              58              59              60
               61              62              63              64              65              66              67              68              69              70
               71              72              73              74              75              76              77              78              79              80
               81              82              83              84              85              86              87              88              89              90
               91              92              93              94              95              96              97              98              99             100
              101             102             103             104             105             106             107             108             109             110
              111             112             113             114             115             116             117             118             119             120
              121             122             123             124             125             126             127             128             129             130
              131             132             133             134             135             136             137             138             139             140
              141             142             143             144             145             146             147             148             149             150
              151             152             153             154             155             156             157             158             159             160
              161             162             163             164             165             166             167             168             169             170
              171             172             173             174             175             176             177             178             179             180
              181             182             183             184             185             186             187             188             189             190
              191             192             193             194             195             196             197             198             199             200
              201             202             203             204             205             206             207             208             209             210
              211             212             213             214             215             216             217             218             219             220
              221             222             223             224             225             226             227             228             229             230
              231             232             233             234             235             236             237             238             239             240
              241             242             243             244             245             246             247             248             249             250
              251             252             253             254             255             256             257             258             259             260
              261             262             263             264             265             266             267             268             269             270
              271             272             273             274             275             276             277             278             279             280
              281             282             283             284             285             286             287             288             289             290
              291             292             293             294             295             296             297             298             299             300
              301             302             303             304             305             306             307             308             309             310
              311             312             313             314             315             316             317             318             319             320
              321             322             323             324             325             326             327             328             329             330
              331             332             333             334             335             336             337             338             339             340
              341             342             343             344             345             346             347             348             349             350
              351             352             353             354             355             356             357             358             359             360
              361             362             363             364             365             366             367             368             369             370
              371             372             373             374             375             376             377             378             379             380
              381             382             383             384             385             386             387             388             389             390
              391             392             393             394             395             396             397             398             399             400
              401             402             403             404             405             406             407             408             409             410
              411             412             413             414             415             416             417             418             419             420
              421             422             423             424             425             426             427             428             429             430
              431             432             433             434             435             436             437             438             439             440
              441             442             443             444             445             446             447             448             449             450
              451             452             453             454             455             456             457             458             459             460
              461             462             463             464             465             466             467             468             469             470
              471             472             473             474             475             476             477             478             479             480
              481             482             483             484             485             486             487             488             489             490
              491             492             493             494             495             496             497             498             499             500
              501             502             503             504             505             506             507             508             509             510
              511             512             513             514             515             516             517             518             519             520
              521             522             523             524             525             526             527             528             529             530
              531             532             533             534             535             536             537             538             539             540
              541             542             543             544             545             546             547             548             549             550
              551             552             553             554             555             556             557             558             559             560
              561             562             563             564             565             566             567             568             569             570
              571             572             573             574             575             576             577             578             579             580
              581             582             583             584             585             586             587             588             589             590
              591             592             593             594             595             596             597             598             599             600
              601             602             603             604             605             606             607             608             609             610
              611             612             613             614             615             616             617             618             619             620
              621             622             623             624             625             626             627             628             629             630
              631             632             633             634             635             636             637             638             639             640
              641             642             643             644             645             646             647             648             649             650
              651             652             653             654             655             656             657             658             659             660
              661             662             663             664             665             666             667             668             669             670
              671             672             673             674             675             676             677             678             679             680
              681             682             683             684             685             686             687             688             689             690
              691             692             693             694             695             696             697             698             699             700
              701             702             703             704             705             706             707             708             709             710
              711             712             713             714             715             716             717             718             719             720
              721             722             723             724             725             726             727             728             729             730
              731             732             733             734             735             736             737             738             739             740
              741             742             743             744             745             746             747             748             749             750
              751             752             753             754             755             756             757             758             759             760
              761             762             763             764             765             766             767             768             769             770
              771             772             773             774             775             776             777             778             779             780
              781             782             783             784             785             786             787             788             789             790
              791             792             793             794             795             796             797             798             799             800
              801             802             803             804             805             806             807             808             809             810
              811             812             813             814             815             816             817             818             819             820
              821             822             823             824             825             826             827             828             829             830
              831             832             833             834             835             836             837             838             839             840
              841             842             843             844             845             846             847             848             849             850
              851             852             853             854             855             856             857             858             859             860
              861             862             863             864             865             866             867             868             869             870
              871             872             873             874             875             876             877             878             879             880
              881             882             883             884             885             886             887             888             889             890
              891             892             893             894             895             896             897             898             899             900
              901             902             903             904             905             906             907             908             909             910
              911             912             913             914             915             916             917             918             919             920
              921             922             923             924             925             926             927             928             929             930
              931             932             933             934             935             936             937             938             939             940
              941             942             943             944             945             946             947             948             949             950
              951             952             953             954             955             956             957             958             959             960
              961             962             963             964             965             966             967             968             969             970
              971             972             973             974             975             976             977             978             979             980
              981             982             983             984             985             986             987             988             989             990
              991             992             993             994             995             996             997             998             999            1000
             1001            1002            1003            1004            1005            1006            1007            1008            1009            1010
             1011            1012            1013            1014            1015            1016            1017            1018            1019            1020
             1021            1022            1023            1024            1025            1026            1027            1028            1029            1030
             1031            1032            1033            1034            1035            1036            1037            1038            1039            1040
             1041            1042            1043            1044            1045            1046            1047            1048            1049            1050
             1051            1052            1053            1054            1055            1056            1057            1058            1059            1060
             1061            1062            1063            1064            1065            1066            1067            1068            1069            1070
             1071            1072            1073            1074            1075            1076            1077            1078            1079            1080
             1081            1082            1083            1084            1085            1086            1087            1088            1089            1090
             1091            1092            1093            1094            1095            1096            1097            1098            1099            1100
             1101            1102            1103            1104            1105            1106            1107            1108            1109            1110
             1111            1112            1113            1114            1115            1116            1117            1118            1119            1120
             1121            1122            1123            1124            1125            1126            1127            1128            1129            1130
             1131            1132            1133            1134            1135            1136            1137            1138            1139            1140
             1141            1142            1143            1144            1145            1146            1147            1148            1149            1150
             1151            1152            1153            1154            1155            1156            1157            1158            1159            1160
             1161            1162            1163            1164            1165            1166            1167            1168            1169            1170
             1171            1172            1173            1174            1175            1176            1177            1178            1179            1180
             1181            1182            1183            1184            1185            1186            1187            1188            1189            1190
             1191            1192            1193            1194            1195            1196            1197            1198            1199            1200
             1201            1202            1203            1204            1205            1206            1207            1208            1209            1210
             1211            1212            1213            1214            1215            1216            1217            1218            1219            1220
             1221            1222            1223            1224            1225            1226            1227            1228            1229            1230
             1231            1232            1233            1234            1235            1236            1237            1238            1239            1240
             1241            1242            1243            1244            1245            1246            1247            1248            1249            1250
             1251            1252            1253            1254            1255            1256            1257            1258            1259            1260
             1261            1262            1263            1264            1265            1266            1267            1268            1269            1270
             1271            1272            1273            1274            1275            1276            1277            1278            1279            1280
             1281            1282            1283            1284            1285            1286            1287            1288            1289            1290
             1291            1292            1293            1294            1295            1296            1297            1298            1299            1300
             1301            1302            1303            1304            1305            1306            1307            1308            1309            1310
             1311            1312            1313            1314            1315            1316            1317            1318            1319            1320
             1321            1322            1323            1324            1325            1326            1327            1328            1329            1330
             1331            1332            1333            1334            1335            1336            1337            1338            1339            1340
             1341            1342            1343            1344            1345            1346            1347            1348            1349            1350
             1351            1352            1353            1354            1355            1356            1357            1358            1359            1360
             1361            1362            1363            1364            1365            1366            1367            1368            1369            1370
             1371            1372            1373            1374            1375            1376            1377            1378            1379            1380
             1381            1382            1383            1384            1385            1386            1387            1388            1389            1390
             1391            1392            1393            1394            1395            1396            1397            1398            1399            1400
             1401            1402            1403            1404            1405            1406            1407            1408            1409            1410
             1411            1412            1413            1414            1415            1416            1417            1418            1419            1420
             1421            1422            1423            1424            1425            1426            1427            1428            1429            1430
             1431            1432            1433            1434            1435            1436            1437            1438            1439            1440
             1441            1442            1443            1444            1445            1446            1447            1448            1449            1450
             1451            1452            1453            1454            1455            1456            1457            1458            1459            1460
             1461            1462            1463            1464            1465            1466            1467            1468            1469            1470
             1471            1472            1473            1474            1475            1476            1477            1478            1479            1480
             1481            1482            1483            1484            1485            1486            1487            1488            1489            1490
             1491            1492            1493            1494            1495            1496            1497            1498            1499            1500
             1501            1502            1503            1504            1505            1506            1507            1508            1509            1510
             1511            1512            1513            1514            1515            1516            1517            1518            1519            1520
             1521            1522            1523            1524            1525            1526            1527            1528            1529            1530
             1531            1532            1533            1534            1535            1536            1537            1538            1539            1540
             1541            1542            1543            1544            1545            1546            1547            1548            1549            1550
             1551            1552            1553            1554            1555            1556            1557            1558            1559            1560
             1561            1562            1563            1564            1565            1566            1567            1568            1569            1570
             1571            1572            1573            1574            1575            1576            1577            1578            1579            1580
             1581            1582            1583            1584            1585            1586            1587            1588            1589            1590
             1591            1592            1593            1594            1595            1596            1597            1598            1599            1600
             1601            1602            1603            1604            1605            1606            1607            1608            1609            1610
             1611            1612            1613            1614            1615            1616            1617            1618            1619            1620
             1621            1622            1623            1624            1625            1626            1627            1628            1629            1630
             1631            1632            1633            1634            1635            1636            1637            1638            1639            1640
             1641            1642            1643            1644            1645            1646            1647            1648            1649            1650
             1651            1652            1653            1654            1655            1656            1657            1658            1659            1660
             1661            1662            1663            1664            1665            1666            1667            1668            1669            1670
             1671            1672            1673            1674            1675            1676            1677            1678            1679            1680
             1681            1682            1683            1684            1685            1686            1687            1688            1689            1690
             1691            1692            1693            1694            1695            1696            1697            1698            1699            1700
             1701            1702            1703            1704            1705            1706            1707            1708            1709            1710
             1711            1712            1713            1714            1715            1716            1717            1718            1719            1720
             1721            1722            1723            1724            1725            1726            1727            1728            1729            1730
             1731            1732            1733            1734            1735            1736            1737            1738            1739            1740
             1741            1742            1743            1744            1745            1746            1747            1748            1749            1750
             1751            1752            1753            1754            1755            1756            1757            1758            1759            1760
             1761            1762            1763            1764            1765            1766            1767            1768            1769            1770
             1771            1772            1773            1774            1775            1776            1777            1778            1779            1780
             1781            1782            1783            1784            1785            1786            1787            1788            1789            1790
             1791            1792            1793            1794            1795            1796            1797            1798            1799            1800
             1801            1802            1803            1804            1805            1806            1807            1808            1809            1810
             1811            1812            1813            1814            1815            1816            1817            1818            1819            1820
             1821            1822            1823            1824            1825            1826            1827            1828            1829            1830
             1831            1832            1833            1834            1835            1836            1837            1838            1839            1840
             1841            1842            1843            1844            1845            1846            1847            1848            1849            1850
             1851            1852            1853            1854            1855            1856            1857            1858            1859            1860
             1861            1862            1863            1864            1865            1866            1867            1868            1869            1870
             1871            1872            1873            1874            1875            1876            1877            1878            1879            1880
             1881            1882            1883            1884            1885            1886            1887            1888            1889            1890
             1891            1892            1893            1894            1895            1896            1897            1898            1899            1900
             1901            1902            1903            1904            1905            1906            1907            1908            1909            1910
             1911            1912            1913            1914            1915            1916            1917            1918            1919            1920
             1921            1922            1923            1924            1925            1926            1927            1928            1929            1930
             1931            1932            1933            1934            1935            1936            1937            1938            1939            1940
             1941            1942            1943            1944            1945            1946            1947            1948            1949            1950
             1951            1952            1953            1954            1955            1956            1957            1958            1959            1960
             1961            1962            1963            1964            1965            1966            1967            1968            1969            1970
             1971            1972            1973            1974            1975            1976            1977            1978            1979            1980
             1981            1982            1983            1984            1985            1986            1987            1988            1989            1990
             1991            1992            1993            1994            1995            1996            1997            1998            1999            2000
             2001            2002            2003            2004            2005            2006            2007            2008            2009            2010
             2011            2012            2013            2014            2015            2016            2017            2018            2019            2020
             2021            2022            2023            2024            2025            2026            2027            2028            2029            2030
             2031            2032            2033            2034            2035            2036            2037            2038            2039            2040
             2041            2042            2043            2044            2045            2046            2047            2048            2049            2050
             2051            2052            2053            2054            2055            2056            2057            2058            2059            2060
             2061            2062            2063            2064            2065            2066            2067            2068            2069            2070
             2071            2072            2073            2074            2075            2076            2077            2078            2079            2080
             2081            2082            2083            2084            2085            2086            2087            2088            2089            2090
             2091            2092            2093            2094            2095            2096            2097            2098            2099            2100
             2101            2102            2103            2104            2105            2106            2107            2108            2109            2110
             2111            2112            2113            2114            2115            2116            2117            2118            2119            2120
             2121            2122            2123            2124            2125            2126            2127            2128            2129            2130
             2131            2132            2133            2134            2135            2136            2137            2138            2139            2140
             2141            2142            2143            2144            2145            2146            2147            2148            2149            2150
             2151            2152            2153            2154            2155            2156            2157            2158            2159            2160
             2161            2162            2163            2164            2165            2166            2167            2168            2169            2170
             2171            2172            2173            2174            2175            2176            2177            2178            2179            2180
             2181            2182            2183            2184            2185            2186            2187            2188            2189            2190
             2191            2192            2193            2194            2195            2196            2197            2198            2199            2200
             2201            2202            2203            2204            2205            2206            2207            2208            2209            2210
             2211            2212            2213            2214            2215            2216            2217            2218            2219            2220
             2221            2222            2223            2224            2225            2226            2227            2228            2229            2230
             2231            2232            2233            2234            2235            2236            2237            2238            2239            2240
             2241            2242            2243            2244            2245            2246            2247            2248            2249            2250
             2251            2252            2253            2254            2255            2256            2257            2258            2259            2260
             2261            2262            2263            2264            2265            2266            2267            2268            2269            2270
             2271            2272            2273            2274            2275            2276            2277            2278            2279            2280
             2281            2282            2283            2284            2285            2286            2287            2288            2289            2290
             2291            2292            2293            2294            2295            2296            2297            2298            2299            2300
             2301            2302            2303            2304            2305            2306            2307            2308            2309            2310
             2311            2312            2313            2314            2315            2316            2317            2318            2319            2320
             2321            2322            2323            2324            2325            2326            2327            2328            2329            2330
             2331            2332            2333            2334            2335            2336            2337            2338            2339            2340
             2341            2342            2343            2344            2345            2346            2347            2348            2349            2350
             2351            2352            2353            2354            2355            2356            2357            2358            2359            2360
             2361            2362            2363            2364            2365            2366            2367            2368            2369            2370
             2371            2372            2373            2374            2375            2376            2377            2378            2379            2380
             2381            2382            2383            2384            2385            2386            2387            2388            2389            2390
             2391            2392            2393            2394            2395            2396            2397            2398            2399            2400
             2401            2402            2403            2404            2405            2406            2407            2408            2409            2410
             2411            2412            2413            2414            2415            2416            2417            2418            2419            2420
             2421            2422            2423            2424            2425            2426            2427            2428            2429            2430
             2431            2432            2433            2434            2435            2436            2437            2438            2439            2440
             2441            2442            2443            2444            2445            2446            2447            2448            2449            2450
             2451            2452            2453            2454            2455            2456            2457            2458            2459            2460
             2461            2462            2463            2464            2465            2466            2467            2468            2469            2470
             2471            2472            2473            2474            2475            2476            2477            2478            2479            2480
             2481            2482            2483            2484            2485            2486            2487            2488            2489            2490
             2491            2492            2493            2494            2495            2496            2497            2498            2499            2500
             2501            2502            2503            2504            2505            2506            2507            2508            2509            2510
             2511            2512            2513            2514            2515            2516            2517            2518            2519            2520
             2521            2522            2523            2524            2525            2526            2527            2528            2529            2530
             2531            2532            2533            2534            2535            2536            2537            2538            2539            2540
             2541            2542            2543            2544            2545            2546            2547            2548            2549            2550
             2551            2552            2553            2554            2555            2556            2557            2558            2559            2560
             2561            2562            2563            2564            2565            2566            2567            2568            2569            2570
             2571            2572            2573            2574            2575            2576            2577            2578            2579            2580
             2581            2582            2583            2584            2585            2586            2587            2588            2589            2590
             2591            2592            2593            2594            2595            2596            2597            2598            2599            2600
             2601            2602            2603            2604            2605            2606            2607            2608            2609            2610
             2611            2612            2613            2614            2615            2616            2617            2618            2619            2620
             2621            2622            2623            2624            2625            2626            2627            2628            2629            2630
             2631            2632            2633            2634            2635            2636            2637            2638            2639            2640
             2641            2642            2643            2644            2645            2646            2647            2648            2649            2650
             2651            2652            2653            2654            2655            2656            2657            2658            2659            2660
             2661            2662            2663            2664            2665            2666            2667            2668            2669            2670
             2671            2672            2673            2674            2675            2676            2677            2678            2679            2680
             2681            2682            2683            2684            2685            2686            2687            2688            2689            2690
             2691            2692            2693            2694            2695            2696            2697            2698            2699            2700
             2701            2702            2703            2704            2705            2706            2707            2708            2709            2710
             2711            2712            2713            2714            2715            2716            2717            2718            2719            2720
             2721            2722            2723            2724            2725            2726            2727            2728            2729            2730
             2731            2732            2733            2734            2735            2736            2737            2738            2739            2740
             2741            2742            2743            2744            2745            2746            2747            2748            2749            2750
             2751            2752            2753            2754            2755            2756            2757            2758            2759            2760
             2761            2762            2763            2764            2765            2766            2767            2768            2769            2770
             2771            2772            2773            2774            2775            2776            2777            2778            2779            2780
             2781            2782            2783            2784            2785            2786            2787            2788            2789            2790
             2791            2792            2793            2794            2795            2796            2797            2798            2799            2800
             2801            2802            2803            2804            2805            2806            2807            2808            2809            2810
             2811            2812            2813            2814            2815            2816            2817            2818            2819            2820
             2821            2822            2823            2824            2825            2826            2827            2828            2829            2830
             2831            2832            2833            2834            2835            2836            2837            2838            2839            2840
             2841            2842            2843            2844            2845            2846            2847            2848            2849            2850
             2851            2852            2853            2854            2855            2856            2857            2858            2859            2860
             2861            2862            2863            2864            2865            2866            2867            2868            2869            2870
             2871            2872            2873            2874            2875            2876            2877            2878            2879            2880
             2881            2882            2883            2884            2885            2886            2887            2888            2889            2890
             2891            2892            2893            2894            2895            2896            2897            2898            2899            2900
             2901            2902            2903            2904            2905            2906            2907            2908            2909            2910
             2911            2912            2913            2914            2915            2916            2917            2918            2919            2920
             2921            2922            2923            2924            2925            2926            2927            2928            2929            2930
             2931            2932            2933            2934            2935            2936            2937            2938            2939            2940
             2941            2942            2943            2944            2945            2946            2947            2948            2949            2950
             2951            2952            2953            2954            2955            2956            2957            2958            2959            2960
             2961            2962            2963            2964            2965            2966            2967            2968            2969            2970
             2971            2972            2973            2974            2975            2976            2977            2978            2979            2980
             2981            2982            2983            2984            2985            2986            2987            2988            2989            2990
             2991            2992            2993            2994            2995            2996            2997            2998            2999            3000
             3001            3002            3003            3004            3005            3006            3007            3008            3009            3010
             3011            3012            3013            3014            3015            3016            3017            3018            3019            3020
             3021            3022            3023            3024            3025            3026            3027            3028            3029            3030
             3031            3032            3033            3034            3035            3036            3037            3038            3039            3040
             3041            3042            3043            3044            3045            3046            3047            3048            3049            3050
             3051            3052            3053            3054            3055            3056            3057            3058            3059            3060
             3061            3062            3063            3064            3065            3066            3067            3068            3069            3070
             3071            3072            3073            3074            3075            3076            3077            3078            3079            3080
             3081            3082            3083            3084            3085            3086            3087            3088            3089            3090
             3091            3092            3093            3094            3095            3096            3097            3098            3099            3100
             3101            3102            3103            3104            3105            3106            3107            3108            3109            3110
             3111            3112            3113            3114            3115            3116            3117            3118            3119            3120
             3121            3122            3123            3124            3125            3126            3127            3128            3129            3130
             3131            3132            3133            3134            3135
 ................................................................................................................................................................
   1      133.790         133.777         133.742         133.669         133.618         133.611         133.495         133.474         133.594         133.683    
          133.759         133.828         133.891         133.951         134.009         134.064         134.119         134.176         134.232         134.282    
          134.331         134.376         134.413         133.701         133.722         133.715         133.682         133.618         133.512         133.433    
          133.533         133.484         133.423         133.481         133.428         133.412         133.559         133.654         133.733         133.805    
          133.874         133.941         134.006         134.069         134.132         134.197         134.256         134.313         134.373         134.441    
          134.548         133.668         133.682         133.689         133.681         133.657         133.614         133.551         133.488         133.462    
          133.519         133.503         133.465         133.512         133.487         133.471         133.568         133.603         133.521         133.569    
          133.652         133.731         133.808         133.884         133.957         134.028         134.096         134.165         134.232         134.298    
          134.365         134.439         134.527         134.620         133.655         133.663         133.670         133.673         133.666         133.649    
          133.622         133.588         133.555         133.521         133.474         133.520         133.498         133.475         133.571         133.607    
          133.525         133.574         133.659         133.745         133.830         133.913         133.991         134.064         134.138         134.208    
          134.279         134.353         134.429         134.512         134.599         134.693         133.645         133.652         133.659         133.664    
          133.666         133.662         133.651         133.635         133.614         133.592         133.569         133.532         133.477         133.525    
          133.505         133.479         133.580         133.618         133.533         133.585         133.677         133.776         133.872         133.958    
          134.035         134.113         134.186         134.259         134.336         134.416         134.500         134.588         134.678         134.769    
          133.635         133.643         133.650         133.657         133.662         133.665         133.664         133.658         133.649         133.638    
          133.624         133.607         133.585         133.546         133.484         133.533         133.519         133.490         133.588         133.635    
          133.525         133.597         133.716         133.836         133.932         134.010         134.089         134.162         134.237         134.317    
          134.399         134.488         134.580         134.672         134.766         134.862         133.621         133.631         133.640         133.649    
          133.656         133.663         133.667         133.669         133.668         133.665         133.659         133.652         133.643         133.630    
          133.608         133.573         133.504         133.537         133.554         133.522         133.628         133.701         133.575         133.685    
          133.815         133.917         133.990         134.064         134.136         134.211         134.293         134.380         134.473         134.572    
          134.670         134.770         134.876         134.984         133.600         133.613         133.626         133.638         133.648         133.657    
          133.665         133.672         133.676         133.679         133.680         133.680         133.679         133.677         133.673         133.667    
          133.657         133.641         133.579         133.687         133.685         133.746         133.807         133.857         133.860         133.894    
          133.922         133.974         134.036         134.103         134.178         134.263         134.356         134.456         134.561         134.667    
          134.777         134.896         135.025         135.166         133.553         133.585         133.605         133.622         133.636         133.648    
          133.659         133.669         133.678         133.685         133.691         133.697         133.701         133.705         133.709         133.714    
          133.720         133.730         133.750         133.796         133.856         133.893         133.860         133.891         133.922         133.933    
          133.918         133.933         133.948         133.965         133.948         133.954         133.994         134.017         133.969         133.999    
          134.058         134.130         134.222         134.325         134.435         134.546         134.659         134.780         134.913         135.065    
          135.267         135.600         135.822         135.991         136.123         136.236         136.338         136.430         136.517         136.597    
          136.675         136.751         136.828         136.907         136.984         137.061         137.139         137.220         137.295         137.368    
          137.436         137.504         137.568         137.636         137.782         137.950         138.054         138.127         138.214         138.359    
          138.507         138.587         138.766         138.953         139.116         139.272         139.529         133.550         133.579         133.601    
          133.619         133.635         133.649         133.663         133.674         133.685         133.695         133.704         133.713         133.721    
          133.730         133.740         133.751         133.764         133.781         133.807         133.846         133.892         133.932         133.959    
          133.965         133.970         133.974         133.978         133.996         134.018         133.974         133.981         134.051         134.084    
          133.997         134.035         134.161         134.288         134.408         134.526         134.645         134.773         134.912         135.065    
          135.249         135.474         135.667         135.833         135.971         136.091         136.198         136.294         136.386         136.474    
          136.558         136.638         136.720         136.802         136.885         136.968         137.054         137.143         137.231         137.320    
          137.412         137.506         137.605         137.727         137.863         138.001         138.127         138.239         138.352         138.490    
          138.631         138.838         138.979         139.179         139.396         139.642         140.083         140.796         133.549         133.576    
          133.599         133.619         133.636         133.652         133.666         133.680         133.693         133.705         133.717         133.729    
          133.741         133.753         133.767         133.782         133.800         133.821         133.848         133.880         133.916         133.950    
          133.978         133.997         134.008         134.006         134.000         134.015         134.001         134.099         134.245         134.377    
          134.499         134.623         134.757         134.896         135.042         135.210         135.389         135.557         135.716         135.854    
          135.977         136.089         136.191         136.285         136.377         136.465         136.548         136.634         136.720         136.808    
          136.897         136.989         137.088         137.189         137.287         137.399         137.504         137.615         137.748         137.884    
          138.013         138.154         138.279         138.402         138.542         138.694         138.922         139.078         139.295         139.519    
          139.787         140.172         140.644         141.103         133.548         133.576         133.599         133.620         133.638         133.655    
          133.671         133.686         133.702         133.716         133.730         133.745         133.759         133.774         133.791         133.809    
          133.830         133.853         133.880         133.910         133.941         133.972         134.000         134.025         134.043         134.039    
          134.035         134.060         134.066         134.025         134.060         134.076         134.104         134.197         134.340         134.466    
          134.598         134.733         134.869         135.008         135.165         135.324         135.477         135.626         135.761         135.884    
          135.999         136.102         136.199         136.293         136.384         136.472         136.561         136.652         136.745         136.840    
          136.940         137.047         137.159         137.261         137.389         137.501         137.624         137.757         137.896         138.027    
          138.175         138.307         138.432         138.573         138.778         138.977         139.133         139.380         139.592         139.847    
          140.184         140.540         140.925         141.322         133.549         133.576         133.600         133.621         133.641         133.659    
          133.676         133.693         133.710         133.727         133.743         133.759         133.776         133.794         133.813         133.833    
          133.855         133.880         133.907         133.936         133.966         133.995         134.024         134.052         134.077         134.099    
          134.109         134.123         134.126         134.139         134.145         134.196         134.148         134.181         134.294         134.429    
          134.566         134.700         134.829         134.968         135.124         135.271         135.415         135.553         135.684         135.807    
          135.922         136.026         136.125         136.220         136.313         136.406         136.499         136.594         136.692         136.792    
          136.899         137.012         137.137         137.241         137.373         137.509         137.631         137.765         137.904         138.032    
          138.176         138.347         138.459         138.638         138.830         139.020         139.179         139.418         139.629         139.872    
          140.159         140.470         140.799         141.143         141.490         133.550         133.578         133.602         133.624         133.645    
          133.664         133.682         133.700         133.718         133.736         133.755         133.773         133.792         133.812         133.833    
          133.855         133.878         133.904         133.931         133.960         133.990         134.019         134.049         134.078         134.106    
          134.134         134.162         134.174         134.190         134.187         134.200         134.235         134.283         134.210         134.263    
          134.372         134.517         134.653         134.780         134.936         135.084         135.225         135.363         135.494         135.621    
          135.741         135.854         135.958         136.057         136.154         136.250         136.346         136.444         136.544         136.645    
          136.751         136.863         136.983         137.113         137.224         137.362         137.510         137.635         137.774         137.903    
          138.036         138.199         138.382         138.490         138.664         138.861         139.048         139.214         139.442         139.648    
          139.874         140.131         140.409         140.701         140.999         141.306         141.617         133.552         133.580         133.605    
          133.628         133.649         133.669         133.688         133.708         133.727         133.746         133.765         133.786         133.807    
          133.828         133.851         133.874         133.899         133.926         133.953         133.982         134.012         134.043         134.073    
          134.104         134.134         134.164         134.192         134.217         134.222         134.225         134.231         134.231         134.289    
          134.345         134.244         134.314         134.444         134.592         134.731         134.898         135.047         135.188         135.319    
          135.445         135.567         135.685         135.794         135.898         135.997         136.095         136.193         136.292         136.394    
          136.498         136.605         136.716         136.833         136.958         137.091         137.213         137.355         137.505         137.639    
          137.776         137.908         138.039         138.215         138.388         138.545         138.708         138.881         139.065         139.250    
          139.450         139.654         139.867         140.101         140.353         140.619         140.889         141.156         141.432         141.704    
          133.554         133.583         133.608         133.631         133.653         133.674         133.695         133.715         133.735         133.756    
          133.776         133.798         133.821         133.844         133.868         133.893         133.919         133.946         133.974         134.004    
          134.034         134.066         134.097         134.129         134.161         134.192         134.220         134.245         134.256         134.240    
          134.263         134.258         134.246         134.347         134.411         134.290         134.372         134.522         134.686         134.848    
          135.012         135.153         135.282         135.405         135.521         135.633         135.741         135.843         135.941         136.040    
          136.140         136.242         136.348         136.457         136.570         136.687         136.808         136.938         137.073         137.205    
          137.351         137.500         137.640         137.777         137.914         138.047         138.235         138.413         138.573         138.737    
          138.914         139.086         139.267         139.451         139.654         139.857         140.072         140.304         140.550         140.803    
          141.058         141.333         141.680         133.557         133.586         133.611         133.635         133.658         133.679         133.701    
          133.722         133.743         133.765         133.787         133.809         133.833         133.858         133.884         133.910         133.937    
          133.965         133.994         134.025         134.056         134.088         134.121         134.155         134.188         134.220         134.251    
          134.277         134.294         134.295         134.258         134.301         134.295         134.283         134.421         134.506         134.377    
          134.485         134.642         134.810         134.975         135.124         135.252         135.371         135.481         135.588         135.692    
          135.790         135.890         135.987         136.089         136.194         136.305         136.419         136.538         136.662         136.789    
          136.923         137.063         137.201         137.349         137.498         137.640         137.780         137.922         138.075         138.254    
          138.427         138.596         138.764         138.936         139.108         139.273         139.454         139.650         139.845         140.046    
          140.261         140.492         140.731         140.984         141.268         141.652         133.559         133.589         133.615         133.639    
          133.662         133.684         133.706         133.729         133.751         133.774         133.797         133.820         133.845         133.872    
          133.898         133.925         133.954         133.983         134.013         134.045         134.077         134.111         134.145         134.180    
          134.216         134.249         134.283         134.313         134.337         134.351         134.352         134.348         134.460         134.341    
          134.439         134.607         134.786         134.948         135.099         135.226         135.339         135.445         135.545         135.643    
          135.738         135.837         135.935         136.038         136.146         136.261         136.382         136.508         136.639         136.773    
          136.911         137.055         137.201         137.350         137.499         137.640         137.792         137.938         138.095         138.267    
          138.448         138.617         138.785         138.956         139.119         139.282         139.457         139.644         139.833         140.024    
          140.225         140.443         140.674         140.924         141.222         141.627         133.562         133.593         133.619         133.643    
          133.666         133.689         133.712         133.735         133.758         133.782         133.806         133.831         133.856         133.883    
          133.912         133.940         133.970         134.000         134.032         134.065         134.099         134.134         134.170         134.207    
          134.243         134.280         134.317         134.353         134.386         134.412         134.421         134.371         134.390         134.419    
          134.387         134.576         134.776         134.931         135.076         135.207         135.314         135.412         135.505         135.596    
          135.688         135.781         135.879         135.982         136.095         136.217         136.346         136.481         136.618         136.759    
          136.903         137.051         137.206         137.356         137.505         137.648         137.803         137.955         138.112         138.284    
          138.469         138.631         138.801         138.970         139.127         139.289         139.460         139.640         139.823         140.005    
          140.196         140.404         140.628         140.873         141.177         141.608         133.566         133.597         133.622         133.646    
          133.669         133.693         133.716         133.740         133.765         133.789         133.814         133.840         133.867         133.894    
          133.924         133.955         133.985         134.017         134.050         134.084         134.120         134.157         134.195         134.233    
          134.271         134.311         134.353         134.397         134.437         134.478         134.509         134.488         134.477         134.543    
          134.553         134.495         134.630         134.565         134.678         134.795         134.937         135.065         135.192         135.292    
          135.381         135.467         135.552         135.636         135.721         135.814         135.919         136.037         136.170         136.310    
          136.454         136.600         136.748         136.899         137.053         137.212         137.366         137.514         137.663         137.815    
          137.970         138.129         138.299         138.480         138.648         138.815         138.981         139.134         139.294         139.468    
          139.642         139.813         139.992         140.174         140.372         140.589         140.830         141.136         141.586         133.569    
          133.603         133.626         133.648         133.671         133.695         133.720         133.745         133.770         133.796         133.822    
          133.849         133.877         133.905         133.935         133.968         134.000         134.033         134.068         134.104         134.141    
          134.179         134.219         134.257         134.299         134.343         134.391         134.439         134.488         134.540         134.594    
          134.659         134.726         134.754         134.768         134.794         134.848         134.957         135.064         135.178         135.270    
          135.349         135.422         135.501         135.578         135.657         135.744         135.844         135.970         136.114         136.274    
          136.431         136.587         136.744         136.903         137.063         137.219         137.378         137.528         137.678         137.829    
          137.984         138.144         138.312         138.485         138.662         138.826         138.990         139.145         139.301         139.477    
          139.641         139.809         139.980         140.159         140.352         140.563         140.801         141.109         141.567         133.617    
          133.628         133.649         133.672         133.697         133.723         133.748         133.775         133.802         133.829         133.857    
          133.886         133.916         133.947         133.980         134.014         134.049         134.085         134.123         134.162         134.202    
          134.241         134.283         134.328         134.376         134.426         134.479         134.534         134.596         134.662         134.733    
          134.793         134.823         134.804         134.838         134.888         134.976         135.067         135.163         135.244         135.312    
          135.378         135.443         135.507         135.571         135.648         135.745         135.880         136.048         136.235         136.413    
          136.580         136.744         136.908         137.072         137.232         137.393         137.542         137.692         137.841         138.000    
          138.161         138.326         138.495         138.671         138.841         139.003         139.153         139.307         139.479         139.645    
          139.812         139.978         140.154         140.341         140.534         140.782         141.092         141.559         133.618         133.644    
          133.670         133.696         133.723         133.750         133.778         133.806         133.835         133.864         133.895         133.926    
          133.958         133.991         134.027         134.064         134.102         134.141         134.182         134.223         134.264         134.309    
          134.357         134.408         134.459         134.515         134.574         134.643         134.711         134.760         134.813         134.773    
          134.830         134.826         134.856         134.843         134.867         134.913         134.991         135.070         135.148         135.219    
          135.282         135.337         135.389         135.441         135.479         135.530         135.551         135.467         135.468         135.594    
          135.644         135.492         135.560         135.755         135.980         136.199         136.399         136.577         136.749         136.918    
          137.083         137.246         137.409         137.559         137.708         137.856         138.017         138.176         138.339         138.511    
          138.685         138.852         139.012         139.162         139.317         139.489         139.653         139.810         139.977         140.152    
          140.338         140.530         140.776         141.091         141.562         133.635         133.665         133.693         133.722         133.751    
          133.780         133.810         133.840         133.870         133.902         133.935         133.969         134.004         134.040         134.078    
          134.118         134.160         134.201         134.244         134.288         134.335         134.386         134.437         134.491         134.548    
          134.611         134.679         134.748         134.790         134.835         134.799         134.833         134.853         134.871         134.858    
          134.872         134.905         134.942         134.894         134.955         135.002         135.071         135.135         135.196         135.247    
          135.288         135.322         135.373         135.409         135.401         135.389         135.383         135.422         135.461         135.426    
          135.456         135.486         135.498         135.482         135.504         135.569         135.719         135.535         135.707         135.928    
          136.179         136.393         136.581         136.759         136.931         137.098         137.263         137.424         137.577         137.727    
          137.878         138.037         138.195         138.356         138.528         138.699         138.861         139.022         139.180         139.341    
          139.501         139.666         139.824         139.987         140.160         140.339         140.519         140.770         141.076         141.599    
          133.657         133.688         133.719         133.750         133.781         133.812         133.843         133.876         133.909         133.943    
          133.979         134.015         134.053         134.092         134.134         134.177         134.221         134.266         134.312         134.361    
          134.412         134.465         134.521         134.580         134.643         134.709         134.777         134.840         134.898         134.931    
          134.973         134.950         134.985         134.998         135.019         135.017         135.042         135.058         135.081         135.065    
          135.077         135.110         135.134         135.096         135.121         135.167         135.186         135.157         135.170         135.209    
          135.223         135.187         135.198         135.240         135.246         135.211         135.220         135.244         135.243         135.246    
          135.285         135.287         135.344         135.303         135.340         135.377         135.383         135.381         135.401         135.431    
          135.446         135.459         135.474         135.468         135.489         135.516         135.564         135.578         135.718         135.641    
          135.740         135.917         136.179         136.399         136.596         136.777         136.952         137.114         137.283         137.444    
          137.597         137.748         137.903         138.062         138.221         138.381         138.548         138.718         138.883         139.042    
          139.203         139.367         139.519         139.684         139.847         139.999         140.165         140.349         140.540         140.780    
          141.141         141.605         133.680         133.713         133.746         133.779         133.812         133.846         133.880         133.915    
          133.951         133.988         134.026         134.066         134.107         134.150         134.195         134.241         134.287         134.334    
          134.385         134.438         134.493         134.549         134.609         134.672         134.737         134.804         134.874         134.942    
          135.005         135.062         135.113         135.164         135.224         135.273         135.321         135.379         135.436         135.499    
          135.521         135.534         135.577         135.597         135.547         135.601         135.605         135.615         135.667         135.744    
          135.671         135.715         135.853         135.964         135.791         135.967         136.189         136.421         136.623         136.806    
          136.978         137.140         137.310         137.471         137.624         137.776         137.930         138.091         138.251         138.419    
          138.584         138.748         138.911         139.068         139.232         139.390         139.550         139.707         139.867         140.022    
          140.184         140.365         140.549         140.787         141.142         141.647         133.704         133.741         133.776         133.811    
          133.846         133.883         133.919         133.957         133.996         134.036         134.078         134.121         134.167         134.213    
          134.260         134.307         134.357         134.409         134.463         134.519         134.577         134.637         134.699         134.765    
          134.834         134.904         134.979         135.049         135.118         135.182         135.245         135.314         135.378         135.440    
          135.508         135.574         135.644         135.704         135.764         135.779         135.810         135.853         135.903         135.830    
          136.006         135.955         136.067         136.244         136.465         136.662         136.847         137.015         137.178         137.346    
          137.508         137.661         137.810         137.967         138.126         138.291         138.462         138.625         138.784         138.945    
          139.097         139.267         139.424         139.575         139.738         139.891         140.051         140.213         140.393         140.584    
          140.802         141.130         141.662         133.731         133.770         133.808         133.845         133.883         133.922         133.962    
          134.003         134.045         134.089         134.135         134.182         134.229         134.278         134.328         134.379         134.432    
          134.487         134.543         134.602         134.662         134.726         134.792         134.864         134.937         135.013         135.089    
          135.164         135.237         135.310         135.388         135.463         135.539         135.616         135.693         135.768         135.839    
          135.872         135.906         135.929         135.974         135.937         135.984         136.024         136.075         136.152         136.344    
          136.533         136.717         136.895         137.067         137.227         137.394         137.553         137.704         137.853         138.007    
          138.167         138.345         138.508         138.665         138.827         138.983         139.141         139.303         139.459         139.609    
          139.768         139.925         140.087         140.249         140.426         140.620         140.839         141.138         141.636         133.760    
          133.801         133.842         133.883         133.924         133.966         134.009         134.053         134.100         134.147         134.196    
          134.245         134.296         134.348         134.401         134.454         134.510         134.567         134.627         134.689         134.753    
          134.822         134.895         134.970         135.049         135.129         135.211         135.293         135.376         135.463         135.548    
          135.634         135.720         135.802         135.879         135.961         136.004         136.052         136.058         136.101         136.110    
          136.169         136.186         136.232         136.295         136.451         136.618         136.787         136.954         137.128         137.288    
          137.454         137.610         137.758         137.907         138.057         138.218         138.393         138.555         138.719         138.882    
          139.028         139.186         139.342         139.494         139.646         139.802         139.964         140.122         140.285         140.463    
          140.657         140.870         141.173         141.632         133.790         133.835         133.879         133.923         133.968         134.013    
          134.060         134.109         134.159         134.209         134.260         134.312         134.366         134.421         134.476         134.532    
          134.590         134.651         134.714         134.781         134.852         134.926         135.004         135.086         135.172         135.260    
          135.350         135.443         135.540         135.634         135.729         135.823         135.911         135.995         136.081         136.180    
          136.265         136.298         136.292         136.331         136.403         136.551         136.709         136.869         137.032         137.193    
          137.367         137.525         137.677         137.823         137.965         138.115         138.271         138.444         138.612         138.782    
          138.932         139.081         139.235         139.385         139.535         139.687         139.835         139.999         140.162         140.324    
          140.501         140.699         140.913         141.204         141.639         133.823         133.871         133.919         133.967         134.016    
          134.065         134.117         134.168         134.220         134.273         134.328         134.383         134.440         134.497         134.555    
          134.615         134.676         134.740         134.811         134.883         134.958         135.039         135.125         135.217         135.313    
          135.413         135.515         135.622         135.729         135.831         135.928         136.015         136.102         136.190         136.276    
          136.321         136.356         136.345         136.370         136.486         136.647         136.802         136.959         137.120         137.282    
          137.451         137.606         137.753         137.898         138.036         138.186         138.337         138.497         138.675         138.848    
          138.990         139.127         139.277         139.430         139.578         139.724         139.872         140.036         140.206         140.372    
          140.549         140.749         140.963         141.226         141.640         133.859         133.911         133.962         134.016         134.069    
          134.121         134.174         134.229         134.284         134.341         134.399         134.458         134.517         134.578         134.639    
          134.702         134.768         134.839         134.915         134.993         135.077         135.169         135.269         135.372         135.484    
          135.599         135.716         135.830         135.940         136.039         136.132         136.222         136.305         136.373         136.392    
          136.399         136.438         136.448         136.573         136.742         136.900         137.056         137.212         137.377         137.542    
          137.688         137.834         137.976         138.111         138.256         138.408         138.566         138.749         138.897         139.030    
          139.171         139.323         139.479         139.621         139.761         139.913         140.081         140.246         140.415         140.592    
          140.785         140.999         141.255         141.644         133.896         133.954         134.013         134.068         134.123         134.179    
          134.235         134.294         134.353         134.413         134.474         134.537         134.600         134.663         134.729         134.797    
          134.870         134.949         135.032         135.121         135.217         135.328         135.443         135.566         135.694         135.825    
          135.950         136.065         136.168         136.262         136.347         136.425         136.497         136.515         136.542         136.571    
          136.617         136.691         136.842         136.997         137.154         137.315         137.473         137.623         137.767         137.910    
          138.056         138.190         138.331         138.472         138.628         138.780         138.923         139.060         139.216         139.322    
          139.381         139.335         139.408         139.471         139.535         139.493         139.559         139.620         139.683         139.643    
          139.709         139.765         139.826         139.789         139.853         139.918         139.985         139.945         140.013         140.080    
          140.141         140.105         140.169         140.242         140.313         140.266         140.348         140.415         140.489         140.441    
          140.524         140.588         140.660         140.611         140.692         140.824         141.030         141.284         141.638         133.940    
          134.003         134.062         134.121         134.181         134.240         134.301         134.362         134.425         134.490         134.555    
          134.621         134.688         134.756         134.829         134.905         134.988         135.075         135.171         135.276         135.392    
          135.523         135.664         135.812         135.956         136.087         136.200         136.301         136.392         136.466         136.536    
          136.603         136.638         136.680         136.666         136.726         136.804         136.950         137.103         137.256         137.417    
          137.563         137.707         137.846         137.990         138.128         138.261         138.392         138.529         138.669         138.769    
          138.830         138.781         138.856         138.914         138.970         138.936         138.994         139.058         139.117         139.082    
          139.143         139.209         139.267         139.232         139.292         139.356         139.429         139.384         139.445         139.563    
          139.720         139.880         140.023         140.184         140.300         140.382         140.329         140.407         140.470         140.550    
          140.500         140.572         140.638         140.723         140.667         140.743         140.824         140.906         140.843         140.933    
          141.071         141.303         141.637         133.986         134.051         134.115         134.179         134.241         134.306         134.370    
          134.435         134.504         134.573         134.643         134.714         134.787         134.863         134.945         135.033         135.127    
          135.231         135.343         135.478         135.633         135.792         135.957         136.097         136.232         136.352         136.442    
          136.517         136.579         136.626         136.645         136.663         136.663         136.710         136.709         136.780         136.768    
          136.818         136.916         137.063         137.207         137.368         137.511         137.654         137.788         137.925         138.064    
          138.193         138.320         138.452         138.535         138.591         138.554         138.623         138.667         138.721         138.693    
          138.749         138.803         138.874         138.832         138.891         139.002         139.153         139.306         139.459         139.620    
          139.777         139.934         140.096         140.258         140.418         140.580         140.745         140.871         140.961         140.895    
          140.976         141.067         141.156         141.082         141.182         141.338         141.643         134.034         134.103         134.171    
          134.238         134.308         134.376         134.443         134.515         134.591         134.666         134.741         134.819         134.902    
          134.990         135.082         135.188         135.305         135.445         135.590         135.762         135.934         136.105         136.256    
          136.369         136.475         136.557         136.627         136.680         136.707         136.681         136.740         136.698         136.735    
          136.857         137.017         137.162         137.314         137.454         137.591         137.727         137.859         137.992         138.130    
          138.253         138.382         138.463         138.515         138.484         138.551         138.582         138.645         138.616         138.666    
          138.760         138.912         139.068         139.216         139.359         139.527         139.686         139.840         140.004         140.162    
          140.325         140.484         140.641         140.788         140.960         141.104         141.207         141.121         141.213         141.336    
          141.469         141.346         141.478         141.709         141.711         134.082         134.157         134.230         134.304         134.377    
          134.451         134.525         134.608         134.688         134.769         134.855         134.946         135.042         135.142         135.254    
          135.378         135.540         135.686         135.869         136.046         136.220         136.366         136.488         136.590         136.673    
          136.735         136.781         136.809         136.767         136.735         136.827         136.788         136.877         136.958         136.925    
          137.009         137.113         137.273         137.404         137.535         137.667         137.800         137.930         138.060         138.183    
          138.307         138.435         138.516         138.583         138.542         138.608         138.688         138.830         138.983         139.130    
          139.278         139.427         139.598         139.753         139.910         140.073         140.238         140.396         140.545         140.694    
          140.842         140.996         141.172         141.384         141.628         134.134         134.215         134.293         134.373         134.454    
          134.533         134.623         134.712         134.800         134.894         134.995         135.097         135.206         135.330         135.473    
          135.639         135.812         136.019         136.198         136.364         136.500         136.620         136.715         136.795         136.856    
          136.901         136.945         136.984         137.025         137.084         137.089         137.142         137.229         137.367         137.489    
          137.615         137.745         137.873         137.997         138.119         138.239         138.368         138.458         138.509         138.482    
          138.546         138.577         138.642         138.614         138.667         138.761         138.905         139.052         139.200         139.358    
          139.513         139.672         139.835         139.994         140.176         140.334         140.472         140.614         140.744         140.878    
          141.021         141.172         141.369         141.611         134.188         134.275         134.362         134.448         134.540         134.637    
          134.736         134.835         134.936         135.046         135.160         135.286         135.432         135.590         135.812         136.025    
          136.209         136.384         136.552         136.685         136.760         136.842         136.920         136.981         137.027         137.084    
          137.137         137.167         137.210         137.221         137.264         137.271         137.313         137.322         137.367         137.461    
          137.577         137.699         137.818         137.938         138.017         138.068         138.043         138.109         138.136         138.189    
          138.174         138.228         138.260         138.313         138.296         138.351         138.390         138.443         138.424         138.478    
          138.515         138.581         138.552         138.608         138.704         138.851         138.987         139.131         139.289         139.459    
          139.614         139.777         139.962         140.173         140.356         140.480         140.599         140.695         140.797         140.903    
          141.008         141.134         141.370         141.607         134.242         134.340         134.438         134.540         134.647         134.758    
          134.869         134.987         135.110         135.245         135.397         135.577         135.826         136.009         136.196         136.381    
          136.554         136.707         136.836         136.955         136.997         137.063         137.117         137.168         137.217         137.264    
          137.339         137.383         137.425         137.430         137.472         137.490         137.532         137.533         137.579         137.658    
          137.773         137.841         137.889         137.870         137.935         137.959         138.009         137.999         138.052         138.078    
          138.145         138.120         138.175         138.258         138.382         138.508         138.662         138.814         138.952         139.083    
          139.237         139.401         139.600         139.765         140.003         140.236         140.386         140.513         140.616         140.699    
          140.774         140.836         140.913         140.962         140.876         134.299         134.413         134.528         134.650         134.779    
          134.908         135.045         135.195         135.356         135.570         135.812         135.998         136.187         136.379         136.564    
          136.735         136.882         137.005         137.108         137.191         137.262         137.282         137.313         137.355         137.400    
          137.465         137.539         137.589         137.635         137.635         137.682         137.689         137.732         137.736         137.784    
          137.802         137.847         137.846         137.896         137.921         137.985         137.968         138.020         138.099         138.223    
          138.349         138.478         138.637         138.785         138.925         139.064         139.197         139.374         139.574         139.805    
          140.095         140.277         140.442         140.586         140.702         140.781         140.824         140.878         140.880         141.157    
          134.361         134.498         134.642         134.795         134.947         135.122         135.305         135.547         135.795         135.989    
          136.184         136.382         136.578         136.764         136.932         137.074         137.192         137.289         137.369         137.430    
          137.478         137.494         137.511         137.550         137.603         137.677         137.755         137.861         137.982         138.101    
          138.217         138.344         138.467         138.620         138.758         138.888         139.032         139.170         139.301         139.528    
          139.910         140.130         140.332         140.516         140.680         140.827         140.938         140.994         140.950         141.743    
          134.428         134.605         134.796         135.009         135.225         135.470         135.766         135.973         136.180         136.388    
          136.594         136.796         136.984         137.148         137.285         137.396         137.488         137.564         137.625         137.672    
          137.708         137.716         137.740         137.768         137.849         137.932         138.028         138.138         138.256         138.371    
          138.498         138.616         138.747         138.872         138.992         139.149         139.314         139.455         139.890         140.142    
          140.379         140.593         140.781         140.944         142.142         142.313         142.441         134.503         134.782         135.057    
          135.360         135.721         135.944         136.165         136.386         136.607         136.824         137.034         137.224         137.384    
          137.513         137.616         137.703         137.776         137.847         137.907         137.950         137.984         138.027         138.106    
          138.210         138.310         138.409         138.497         138.572         138.662         138.754         138.834         138.946         139.043    
          139.183         139.370         139.610         139.775         140.545         141.067         141.504         141.911         142.216         142.489    
          134.665         135.108         135.573         135.898         136.133         136.367         136.604         136.840         137.071         137.292    
          137.484         137.640         137.760         137.851         137.934         137.997         138.103         138.953         138.889         138.769    
          138.729         138.809         139.086         139.119         139.161         139.214         139.235         139.312         139.353         139.338    
          139.422         139.451         139.627         139.883         140.130         140.244         135.165         135.833         136.092         136.330    
          136.576         136.831         137.086         137.337         137.571         137.769         137.925         138.030         138.096         138.191    
          138.189         139.503         136.072         136.301         136.528         136.783         137.062         137.345         137.626         137.884    
          138.099         138.256         138.340         138.324         139.929         136.606         137.069         137.582         138.153         138.576    
          139.103         139.451         139.751         139.963         140.101    
1
  HEAD IN LAYER   2 AT END OF TIME STEP   1 IN STRESS PERIOD    2
  ---------------------------------------------------------------------------

                1               2               3               4               5               6               7               8               9              10
               11              12              13              14              15              16              17              18              19              20
               21              22              23              24              25              26              27              28              29              30
               31              32              33              34              35              36              37              38              39              40
               41              42              43              44              45              46              47              48              49              50
               51              52              53              54              55              56              57              58              59              60
               61              62              63              64              65              66              67              68              69              70
               71              72              73              74              75              76              77              78              79              80
               81              82              83              84              85              86              87              88              89              90
               91              92              93              94              95              96              97              98              99             100
              101             102             103             104             105             106             107             108             109             110
              111             112             113             114             115             116             117             118             119             120
              121             122             123             124             125             126             127             128             129             130
              131             132             133             134             135             136             137             138             139             140
              141             142             143             144             145             146             147             148             149             150
              151             152             153             154             155             156             157             158             159             160
              161             162             163             164             165             166             167             168             169             170
              171             172             173             174             175             176             177             178             179             180
              181             182             183             184             185             186             187             188             189             190
              191             192             193             194             195             196             197             198             199             200
              201             202             203             204             205             206             207             208             209             210
              211             212             213             214             215             216             217             218             219             220
              221             222             223             224             225             226             227             228             229             230
              231             232             233             234             235             236             237             238             239             240
              241             242             243             244             245             246             247             248             249             250
              251             252             253             254             255             256             257             258             259             260
              261             262             263             264             265             266             267             268             269             270
              271             272             273             274             275             276             277             278             279             280
              281             282             283             284             285             286             287             288             289             290
              291             292             293             294             295             296             297             298             299             300
              301             302             303             304             305             306             307             308             309             310
              311             312             313             314             315             316             317             318             319             320
              321             322             323             324             325             326             327             328             329             330
              331             332             333             334             335             336             337             338             339             340
              341             342             343             344             345             346             347             348             349             350
              351             352             353             354             355             356             357             358             359             360
              361             362             363             364             365             366             367             368             369             370
              371             372             373             374             375             376             377             378             379             380
              381             382             383             384             385             386             387             388             389             390
              391             392             393             394             395             396             397             398             399             400
              401             402             403             404             405             406             407             408             409             410
              411             412             413             414             415             416             417             418             419             420
              421             422             423             424             425             426             427             428             429             430
              431             432             433             434             435             436             437             438             439             440
              441             442             443             444             445             446             447             448             449             450
              451             452             453             454             455             456             457             458             459             460
              461             462             463             464             465             466             467             468             469             470
              471             472             473             474             475             476             477             478             479             480
              481             482             483             484             485             486             487             488             489             490
              491             492             493             494             495             496             497             498             499             500
              501             502             503             504             505             506             507             508             509             510
              511             512             513             514             515             516             517             518             519             520
              521             522             523             524             525             526             527             528             529             530
              531             532             533             534             535             536             537             538             539             540
              541             542             543             544             545             546             547             548             549             550
              551             552             553             554             555             556             557             558             559             560
              561             562             563             564             565             566             567             568             569             570
              571             572             573             574             575             576             577             578             579             580
              581             582             583             584             585             586             587             588             589             590
              591             592             593             594             595             596             597             598             599             600
              601             602             603             604             605             606             607             608             609             610
              611             612             613             614             615             616             617             618             619             620
              621             622             623             624             625             626             627             628             629             630
              631             632             633             634             635             636             637             638             639             640
              641             642             643             644             645             646             647             648             649             650
              651             652             653             654             655             656             657             658             659             660
              661             662             663             664             665             666             667             668             669             670
              671             672             673             674             675             676             677             678             679             680
              681             682             683             684             685             686             687             688             689             690
              691             692             693             694             695             696             697             698             699             700
              701             702             703             704             705             706             707             708             709             710
              711             712             713             714             715             716             717             718             719             720
              721             722             723             724             725             726             727             728             729             730
              731             732             733             734             735             736             737             738             739             740
              741             742             743             744             745             746             747             748             749             750
              751             752             753             754             755             756             757             758             759             760
              761             762             763             764             765             766             767             768             769             770
              771             772             773             774             775             776             777             778             779             780
              781             782             783             784             785             786             787             788             789             790
              791             792             793             794             795             796             797             798             799             800
              801             802             803             804             805             806             807             808             809             810
              811             812             813             814             815             816             817             818             819             820
              821             822             823             824             825             826             827             828             829             830
              831             832             833             834             835             836             837             838             839             840
              841             842             843             844             845             846             847             848             849             850
              851             852             853             854             855             856             857             858             859             860
              861             862             863             864             865             866             867             868             869             870
              871             872             873             874             875             876             877             878             879             880
              881             882             883             884             885             886             887             888             889             890
              891             892             893             894             895             896             897             898             899             900
              901             902             903             904             905             906             907             908             909             910
              911             912             913             914             915             916             917             918             919             920
              921             922             923             924             925             926             927             928             929             930
              931             932             933             934             935             936             937             938             939             940
              941             942             943             944             945             946             947             948             949             950
              951             952             953             954             955             956             957             958             959             960
              961             962             963             964             965             966             967             968             969             970
              971             972             973             974             975             976             977             978             979             980
              981             982             983             984             985             986             987             988             989             990
              991             992             993             994             995             996             997             998             999            1000
             1001            1002            1003            1004            1005            1006            1007            1008            1009            1010
             1011            1012            1013            1014            1015            1016            1017            1018            1019            1020
             1021            1022            1023            1024            1025            1026            1027            1028            1029            1030
             1031            1032            1033            1034            1035            1036            1037            1038            1039            1040
             1041            1042            1043            1044            1045            1046            1047            1048            1049            1050
             1051            1052            1053            1054            1055            1056            1057            1058            1059            1060
             1061            1062            1063            1064            1065            1066            1067            1068            1069            1070
             1071            1072            1073            1074            1075            1076            1077            1078            1079            1080
             1081            1082            1083            1084            1085            1086            1087            1088            1089            1090
             1091            1092            1093            1094            1095            1096            1097            1098            1099            1100
             1101            1102            1103            1104            1105            1106            1107            1108            1109            1110
             1111            1112            1113            1114            1115            1116            1117            1118            1119            1120
             1121            1122            1123            1124            1125            1126            1127            1128            1129            1130
             1131            1132            1133            1134            1135            1136            1137            1138            1139            1140
             1141            1142            1143            1144            1145            1146            1147            1148            1149            1150
             1151            1152            1153            1154            1155            1156            1157            1158            1159            1160
             1161            1162            1163            1164            1165            1166            1167            1168            1169            1170
             1171            1172            1173            1174            1175            1176            1177            1178            1179            1180
             1181            1182            1183            1184            1185            1186            1187            1188            1189            1190
             1191            1192            1193            1194            1195            1196            1197            1198            1199            1200
             1201            1202            1203            1204            1205            1206            1207            1208            1209            1210
             1211            1212            1213            1214            1215            1216            1217            1218            1219            1220
             1221            1222            1223            1224            1225            1226            1227            1228            1229            1230
             1231            1232            1233            1234            1235            1236            1237            1238            1239            1240
             1241            1242            1243            1244            1245            1246            1247            1248            1249            1250
             1251            1252            1253            1254            1255            1256            1257            1258            1259            1260
             1261            1262            1263            1264            1265            1266            1267            1268            1269            1270
             1271            1272            1273            1274            1275            1276            1277            1278            1279            1280
             1281            1282            1283            1284            1285            1286            1287            1288            1289            1290
             1291            1292            1293            1294            1295            1296            1297            1298            1299            1300
             1301            1302            1303            1304            1305            1306            1307            1308            1309            1310
             1311            1312            1313            1314            1315            1316            1317            1318            1319            1320
             1321            1322            1323            1324            1325            1326            1327            1328            1329            1330
             1331            1332            1333            1334            1335            1336            1337            1338            1339            1340
             1341            1342            1343            1344            1345            1346            1347            1348            1349            1350
             1351            1352            1353            1354            1355            1356            1357            1358            1359            1360
             1361            1362            1363            1364            1365            1366            1367            1368            1369            1370
             1371            1372            1373            1374            1375            1376            1377            1378            1379            1380
             1381            1382            1383            1384            1385            1386            1387            1388            1389            1390
             1391            1392            1393            1394            1395            1396            1397            1398            1399            1400
             1401            1402            1403            1404            1405            1406            1407            1408            1409            1410
             1411            1412            1413            1414            1415            1416            1417            1418            1419            1420
             1421            1422            1423            1424            1425            1426            1427            1428            1429            1430
             1431            1432            1433            1434            1435            1436            1437            1438            1439            1440
             1441            1442            1443            1444            1445            1446            1447            1448            1449            1450
             1451            1452            1453            1454            1455            1456            1457            1458            1459            1460
             1461            1462            1463            1464            1465            1466            1467            1468            1469            1470
             1471            1472            1473            1474            1475            1476            1477            1478            1479            1480
             1481            1482            1483            1484            1485            1486            1487            1488            1489            1490
             1491            1492            1493            1494            1495            1496            1497            1498            1499            1500
             1501            1502            1503            1504            1505            1506            1507            1508            1509            1510
             1511            1512            1513            1514            1515            1516            1517            1518            1519            1520
             1521            1522            1523            1524            1525            1526            1527            1528            1529            1530
             1531            1532            1533            1534            1535            1536            1537            1538            1539            1540
             1541            1542            1543            1544            1545            1546            1547            1548            1549            1550
             1551            1552            1553            1554            1555            1556            1557            1558            1559            1560
             1561            1562            1563            1564            1565            1566            1567            1568            1569            1570
             1571            1572            1573            1574            1575            1576            1577            1578            1579            1580
             1581            1582            1583            1584            1585            1586            1587            1588            1589            1590
             1591            1592            1593            1594            1595            1596            1597            1598            1599            1600
             1601            1602            1603            1604            1605            1606            1607            1608            1609            1610
             1611            1612            1613            1614            1615            1616            1617            1618            1619            1620
             1621            1622            1623            1624            1625            1626            1627            1628            1629            1630
             1631            1632            1633            1634            1635            1636            1637            1638            1639            1640
             1641            1642            1643            1644            1645            1646            1647            1648            1649            1650
             1651            1652            1653            1654            1655            1656            1657            1658            1659            1660
             1661            1662            1663            1664            1665            1666            1667            1668            1669            1670
             1671            1672            1673            1674            1675            1676            1677            1678            1679            1680
             1681            1682            1683            1684            1685            1686            1687            1688            1689            1690
             1691            1692            1693            1694            1695            1696            1697            1698            1699            1700
             1701            1702            1703            1704            1705            1706            1707            1708            1709            1710
             1711            1712            1713            1714            1715            1716            1717            1718            1719            1720
             1721            1722            1723            1724            1725            1726            1727            1728            1729            1730
             1731            1732            1733            1734            1735            1736            1737            1738            1739            1740
             1741            1742            1743            1744            1745            1746            1747            1748            1749            1750
             1751            1752            1753            1754            1755            1756            1757            1758            1759            1760
             1761            1762            1763            1764            1765            1766            1767            1768            1769            1770
             1771            1772            1773            1774            1775            1776            1777            1778            1779            1780
             1781            1782            1783            1784            1785            1786            1787            1788            1789            1790
             1791            1792            1793            1794            1795            1796            1797            1798            1799            1800
             1801            1802            1803            1804            1805            1806            1807            1808            1809            1810
             1811            1812            1813            1814            1815            1816            1817            1818            1819            1820
             1821            1822            1823            1824            1825            1826            1827            1828            1829            1830
             1831            1832            1833            1834            1835            1836            1837            1838            1839            1840
             1841            1842            1843            1844            1845            1846            1847            1848            1849            1850
             1851            1852            1853            1854            1855            1856            1857            1858            1859            1860
             1861            1862            1863            1864            1865            1866            1867            1868            1869            1870
             1871            1872            1873            1874            1875            1876            1877            1878            1879            1880
             1881            1882            1883            1884            1885            1886            1887            1888            1889            1890
             1891            1892            1893            1894            1895            1896            1897            1898            1899            1900
             1901            1902            1903            1904            1905            1906            1907            1908            1909            1910
             1911            1912            1913            1914            1915            1916            1917            1918            1919            1920
             1921            1922            1923            1924            1925            1926            1927            1928            1929            1930
             1931            1932            1933            1934            1935            1936            1937            1938            1939            1940
             1941            1942            1943            1944            1945            1946            1947            1948            1949            1950
             1951            1952            1953            1954            1955            1956            1957            1958            1959            1960
             1961            1962            1963            1964            1965            1966            1967            1968            1969            1970
             1971            1972            1973            1974            1975            1976            1977            1978            1979            1980
             1981            1982            1983            1984            1985            1986            1987            1988            1989            1990
             1991            1992            1993            1994            1995            1996            1997            1998            1999            2000
             2001            2002            2003            2004            2005            2006            2007            2008            2009            2010
             2011            2012            2013            2014            2015            2016            2017            2018            2019            2020
             2021            2022            2023            2024            2025            2026            2027            2028            2029            2030
             2031            2032            2033            2034            2035            2036            2037            2038            2039            2040
             2041            2042            2043            2044            2045            2046            2047            2048            2049            2050
             2051            2052            2053            2054            2055            2056            2057            2058            2059            2060
             2061            2062            2063            2064            2065            2066            2067            2068            2069            2070
             2071            2072            2073            2074            2075            2076            2077            2078            2079            2080
             2081            2082            2083            2084            2085            2086            2087            2088            2089            2090
             2091            2092            2093            2094            2095            2096            2097            2098            2099            2100
             2101            2102            2103            2104            2105            2106            2107            2108            2109            2110
             2111            2112            2113            2114            2115            2116            2117            2118            2119            2120
             2121            2122            2123            2124            2125            2126            2127            2128            2129            2130
             2131            2132            2133            2134            2135            2136            2137            2138            2139            2140
             2141            2142            2143            2144            2145            2146            2147            2148            2149            2150
             2151            2152            2153            2154            2155            2156            2157            2158            2159            2160
             2161            2162            2163            2164            2165            2166            2167            2168            2169            2170
             2171            2172            2173            2174            2175            2176            2177            2178            2179            2180
             2181            2182            2183            2184            2185            2186            2187            2188            2189            2190
             2191            2192            2193            2194            2195            2196            2197            2198            2199            2200
             2201            2202            2203            2204            2205            2206            2207            2208            2209            2210
             2211            2212            2213            2214            2215            2216            2217            2218            2219            2220
             2221            2222            2223            2224            2225            2226            2227            2228            2229            2230
             2231            2232            2233            2234            2235            2236            2237            2238            2239            2240
             2241            2242            2243            2244            2245            2246            2247            2248            2249            2250
             2251            2252            2253            2254            2255            2256            2257            2258            2259            2260
             2261            2262            2263            2264            2265            2266            2267            2268            2269            2270
             2271            2272            2273            2274            2275            2276            2277            2278            2279            2280
             2281            2282            2283            2284            2285            2286            2287            2288            2289            2290
             2291            2292            2293            2294            2295            2296            2297            2298            2299            2300
             2301            2302            2303            2304            2305            2306            2307            2308            2309            2310
             2311            2312            2313            2314            2315            2316            2317            2318            2319            2320
             2321            2322            2323            2324            2325            2326            2327            2328            2329            2330
             2331            2332            2333            2334            2335            2336            2337            2338            2339            2340
             2341            2342            2343            2344            2345            2346            2347            2348            2349            2350
             2351            2352            2353            2354            2355            2356            2357            2358            2359            2360
             2361            2362            2363            2364            2365            2366            2367            2368            2369            2370
             2371            2372            2373            2374            2375            2376            2377            2378            2379            2380
             2381            2382            2383            2384            2385            2386            2387            2388            2389            2390
             2391            2392            2393            2394            2395            2396            2397            2398            2399            2400
             2401            2402            2403            2404            2405            2406            2407            2408            2409            2410
             2411            2412            2413            2414            2415            2416            2417            2418            2419            2420
             2421            2422            2423            2424            2425            2426            2427            2428            2429            2430
             2431            2432            2433            2434            2435            2436            2437            2438            2439            2440
             2441            2442            2443            2444            2445            2446            2447            2448            2449            2450
             2451            2452            2453            2454            2455            2456            2457            2458            2459            2460
             2461            2462            2463            2464            2465            2466            2467            2468            2469            2470
             2471            2472            2473            2474            2475            2476            2477            2478            2479            2480
             2481            2482            2483            2484            2485            2486            2487            2488            2489            2490
             2491            2492            2493            2494            2495            2496            2497            2498            2499            2500
             2501            2502            2503            2504            2505            2506            2507            2508            2509            2510
             2511            2512            2513            2514            2515            2516            2517            2518            2519            2520
             2521            2522            2523            2524            2525            2526            2527            2528            2529            2530
             2531            2532            2533            2534            2535            2536            2537            2538            2539            2540
             2541            2542            2543            2544            2545            2546            2547            2548            2549            2550
             2551            2552            2553            2554            2555            2556            2557            2558            2559            2560
             2561            2562            2563            2564            2565            2566            2567            2568            2569            2570
             2571            2572            2573            2574            2575            2576            2577            2578            2579            2580
             2581            2582            2583            2584            2585            2586            2587            2588            2589            2590
             2591            2592            2593            2594            2595            2596            2597            2598            2599            2600
             2601            2602            2603            2604            2605            2606            2607            2608            2609            2610
             2611            2612            2613            2614            2615            2616            2617            2618            2619            2620
             2621            2622            2623            2624            2625            2626            2627            2628            2629            2630
             2631            2632            2633            2634            2635            2636            2637            2638            2639            2640
             2641            2642            2643            2644            2645            2646            2647            2648            2649            2650
             2651            2652            2653            2654            2655            2656            2657            2658            2659            2660
             2661            2662            2663            2664            2665            2666            2667            2668            2669            2670
             2671            2672            2673            2674            2675            2676            2677            2678            2679            2680
             2681            2682            2683            2684            2685            2686            2687            2688            2689            2690
             2691            2692            2693            2694            2695            2696            2697            2698            2699            2700
             2701            2702            2703            2704            2705            2706            2707            2708            2709            2710
             2711            2712            2713            2714            2715            2716            2717            2718            2719            2720
             2721            2722            2723            2724            2725            2726            2727            2728            2729            2730
             2731            2732            2733            2734            2735            2736            2737            2738            2739            2740
             2741            2742            2743            2744            2745            2746            2747            2748            2749            2750
             2751            2752            2753            2754            2755            2756            2757            2758            2759            2760
             2761            2762            2763            2764            2765            2766            2767            2768            2769            2770
             2771            2772            2773            2774            2775            2776            2777            2778            2779            2780
             2781            2782            2783            2784            2785            2786            2787            2788            2789            2790
             2791            2792            2793            2794            2795            2796            2797            2798            2799            2800
             2801            2802            2803            2804            2805            2806            2807            2808            2809            2810
             2811            2812            2813            2814            2815            2816            2817            2818            2819            2820
             2821            2822            2823            2824            2825            2826            2827            2828            2829            2830
             2831            2832            2833            2834            2835            2836            2837            2838            2839            2840
             2841            2842            2843            2844            2845            2846            2847            2848            2849            2850
             2851            2852            2853            2854            2855            2856            2857            2858            2859            2860
             2861            2862            2863            2864            2865            2866            2867            2868            2869            2870
             2871            2872            2873            2874            2875            2876            2877            2878            2879            2880
             2881            2882            2883            2884            2885            2886            2887            2888            2889            2890
             2891            2892            2893            2894            2895            2896            2897            2898            2899            2900
             2901            2902            2903            2904            2905            2906            2907            2908            2909            2910
             2911            2912            2913            2914            2915            2916            2917            2918            2919            2920
             2921            2922            2923            2924            2925            2926            2927            2928            2929            2930
             2931            2932            2933            2934            2935            2936            2937            2938            2939            2940
             2941            2942            2943            2944            2945            2946            2947            2948            2949            2950
             2951            2952            2953            2954            2955            2956            2957            2958            2959            2960
             2961            2962            2963            2964            2965            2966            2967            2968            2969            2970
             2971            2972            2973            2974            2975            2976            2977            2978            2979            2980
             2981            2982            2983            2984            2985            2986            2987            2988            2989            2990
             2991            2992            2993            2994            2995            2996            2997            2998            2999            3000
             3001            3002            3003            3004            3005            3006            3007            3008            3009            3010
             3011            3012            3013            3014            3015            3016            3017            3018            3019            3020
             3021            3022            3023            3024            3025            3026            3027            3028            3029            3030
             3031            3032            3033            3034            3035            3036            3037            3038            3039            3040
             3041            3042            3043            3044            3045            3046            3047            3048            3049            3050
             3051            3052            3053            3054            3055            3056            3057            3058            3059            3060
             3061            3062            3063            3064            3065            3066            3067            3068            3069            3070
             3071            3072            3073            3074            3075            3076            3077            3078            3079            3080
             3081            3082            3083            3084            3085            3086            3087            3088            3089            3090
             3091            3092            3093            3094            3095            3096            3097            3098            3099            3100
             3101            3102            3103            3104            3105            3106            3107            3108            3109            3110
             3111            3112            3113            3114            3115            3116            3117            3118            3119            3120
             3121            3122            3123            3124            3125            3126            3127            3128            3129            3130
             3131            3132            3133            3134            3135
 ................................................................................................................................................................
   1      133.708         133.699         133.676         133.641         133.619         133.611         133.612         133.603         133.610         133.647    
          133.700         133.760         133.823         133.887         133.951         134.013         134.075         134.135         134.193         134.250    
          134.303         134.350         134.384         133.685         133.691         133.683         133.663         133.631         133.606         133.594    
          133.604         133.593         133.588         133.593         133.584         133.586         133.614         133.665         133.724         133.788    
          133.854         133.920         133.987         134.052         134.116         134.178         134.239         134.297         134.353         134.406    
          134.459         133.670         133.676         133.677         133.670         133.654         133.629         133.602         133.586         133.584    
          133.590         133.587         133.591         133.602         133.587         133.594         133.625         133.644         133.610         133.631    
          133.679         133.742         133.810         133.881         133.952         134.022         134.090         134.157         134.223         134.287    
          134.351         134.414         134.476         134.528         133.660         133.665         133.668         133.669         133.663         133.651    
          133.634         133.614         133.599         133.592         133.600         133.616         133.597         133.606         133.638         133.658    
          133.623         133.645         133.696         133.765         133.839         133.916         133.991         134.064         134.135         134.205    
          134.274         134.343         134.413         134.482         134.546         134.600         133.651         133.656         133.661         133.664    
          133.665         133.662         133.654         133.642         133.629         133.617         133.608         133.604         133.614         133.631    
          133.612         133.622         133.656         133.679         133.642         133.668         133.723         133.801         133.883         133.963    
          134.039         134.113         134.185         134.258         134.332         134.407         134.483         134.556         134.625         134.684    
          133.641         133.647         133.653         133.659         133.663         133.665         133.664         133.661         133.654         133.646    
          133.638         133.631         133.625         133.625         133.636         133.656         133.639         133.652         133.686         133.713    
          133.675         133.706         133.769         133.857         133.940         134.017         134.091         134.165         134.239         134.317    
          134.397         134.479         134.562         134.642         134.718         134.787         133.628         133.636         133.644         133.651    
          133.658         133.664         133.668         133.670         133.670         133.668         133.664         133.661         133.657         133.655    
          133.654         133.661         133.677         133.702         133.686         133.705         133.741         133.776         133.739         133.779    
          133.845         133.927         134.000         134.071         134.142         134.218         134.298         134.383         134.471         134.562    
          134.654         134.745         134.834         134.919         133.613         133.622         133.632         133.641         133.650         133.659    
          133.666         133.672         133.677         133.680         133.682         133.684         133.684         133.686         133.688         133.693    
          133.703         133.725         133.753         133.789         133.772         133.803         133.835         133.868         133.845         133.878    
          133.926         133.988         134.051         134.118         134.192         134.274         134.364         134.459         134.558         134.660    
          134.765         134.874         134.987         135.102         133.595         133.606         133.617         133.629         133.640         133.651    
          133.661         133.670         133.679         133.686         133.692         133.698         133.703         133.709         133.715         133.722    
          133.733         133.749         133.776         133.820         133.859         133.888         133.870         133.895         133.920         133.942    
          133.924         133.945         133.972         133.993         133.971         133.991         134.024         134.048         134.017         134.044    
          134.092         134.162         134.246         134.341         134.443         134.549         134.659         134.776         134.901         135.039    
          135.199         135.411         135.591         135.744         135.879         136.001         136.114         136.218         136.316         136.410    
          136.503         136.594         136.683         136.772         136.862         136.952         137.043         137.136         137.229         137.324    
          137.421         137.521         137.624         137.734         137.855         137.980         138.098         138.212         138.332         138.465    
          138.606         138.751         138.912         139.081         139.265         139.474         139.670         133.593         133.602         133.614    
          133.627         133.640         133.652         133.664         133.675         133.686         133.696         133.705         133.714         133.723    
          133.732         133.743         133.755         133.770         133.791         133.818         133.856         133.899         133.943         133.984    
          134.015         134.037         134.016         134.034         134.064         134.087         134.058         134.078         134.122         134.152    
          134.108         134.143         134.213         134.314         134.421         134.533         134.650         134.775         134.909         135.056    
          135.218         135.394         135.560         135.709         135.842         135.964         136.076         136.181         136.281         136.376    
          136.469         136.560         136.651         136.741         136.832         136.924         137.018         137.114         137.211         137.312    
          137.415         137.521         137.631         137.748         137.870         137.995         138.117         138.239         138.366         138.503    
          138.651         138.812         138.978         139.158         139.372         139.639         139.952         140.331         133.592         133.601    
          133.613         133.627         133.641         133.655         133.668         133.681         133.694         133.706         133.718         133.730    
          133.742         133.754         133.768         133.784         133.803         133.826         133.853         133.886         133.923         133.960    
          133.996         134.031         134.068         134.103         134.132         134.103         134.130         134.187         134.287         134.397    
          134.512         134.633         134.762         134.900         135.048         135.204         135.362         135.518         135.660         135.791    
          135.911         136.023         136.129         136.230         136.326         136.420         136.513         136.606         136.698         136.792    
          136.887         136.985         137.086         137.189         137.296         137.407         137.520         137.637         137.759         137.884    
          138.011         138.138         138.267         138.401         138.544         138.700         138.870         139.044         139.235         139.467    
          139.759         140.078         140.412         140.739         133.592         133.601         133.613         133.628         133.643         133.658    
          133.673         133.688         133.702         133.716         133.730         133.745         133.760         133.775         133.792         133.811    
          133.832         133.855         133.883         133.913         133.946         133.980         134.014         134.047         134.082         134.109    
          134.132         134.117         134.137         134.164         134.194         134.165         134.198         134.264         134.372         134.487    
          134.609         134.739         134.877         135.024         135.175         135.324         135.471         135.608         135.735         135.854    
          135.965         136.071         136.173         136.271         136.366         136.461         136.557         136.652         136.749         136.848    
          136.951         137.057         137.166         137.279         137.399         137.519         137.642         137.767         137.896         138.026    
          138.158         138.293         138.432         138.582         138.746         138.919         139.099         139.295         139.532         139.822    
          140.116         140.431         140.762         141.024         133.593         133.601         133.615         133.630         133.646         133.662    
          133.678         133.694         133.711         133.727         133.743         133.760         133.777         133.795         133.814         133.834    
          133.857         133.882         133.909         133.939         133.970         134.002         134.034         134.067         134.102         134.141    
          134.174         134.202         134.181         134.205         134.240         134.274         134.238         134.274         134.347         134.458    
          134.579         134.708         134.845         134.991         135.139         135.283         135.424         135.557         135.681         135.798    
          135.908         136.013         136.115         136.215         136.312         136.410         136.507         136.606         136.707         136.811    
          136.918         137.030         137.145         137.264         137.390         137.517         137.645         137.774         137.905         138.038    
          138.175         138.318         138.462         138.618         138.784         138.960         139.142         139.337         139.572         139.844    
          140.123         140.417         140.718         140.995         141.204         133.594         133.603         133.617         133.633         133.650    
          133.667         133.684         133.702         133.719         133.737         133.755         133.774         133.793         133.813         133.834    
          133.856         133.880         133.905         133.933         133.962         133.993         134.025         134.057         134.090         134.124    
          134.161         134.205         134.242         134.274         134.247         134.273         134.315         134.351         134.308         134.347    
          134.425         134.542         134.669         134.806         134.953         135.100         135.241         135.379         135.508         135.629    
          135.744         135.852         135.957         136.060         136.160         136.260         136.359         136.460         136.563         136.668    
          136.776         136.889         137.005         137.126         137.251         137.383         137.516         137.647         137.779         137.913    
          138.049         138.192         138.340         138.489         138.648         138.815         138.990         139.174         139.369         139.600    
          139.854         140.110         140.378         140.654         140.925         141.160         141.338         133.596         133.605         133.619    
          133.636         133.654         133.672         133.691         133.709         133.728         133.747         133.767         133.787         133.808    
          133.830         133.852         133.876         133.901         133.927         133.955         133.985         134.016         134.047         134.080    
          134.113         134.147         134.184         134.223         134.268         134.307         134.340         134.309         134.335         134.383    
          134.421         134.370         134.413         134.500         134.626         134.764         134.914         135.061         135.201         135.336    
          135.462         135.581         135.693         135.800         135.904         136.007         136.108         136.209         136.311         136.415    
          136.522         136.632         136.745         136.863         136.985         137.110         137.241         137.377         137.515         137.649    
          137.784         137.920         138.059         138.207         138.360         138.515         138.675         138.839         139.010         139.196    
          139.401         139.627         139.857         140.091         140.335         140.587         140.840         141.080         141.290         141.437    
          133.598         133.608         133.622         133.640         133.658         133.677         133.697         133.717         133.737         133.757    
          133.779         133.800         133.822         133.845         133.869         133.894         133.920         133.947         133.976         134.006    
          134.038         134.070         134.103         134.137         134.171         134.207         134.245         134.284         134.327         134.366    
          134.402         134.367         134.395         134.452         134.495         134.437         134.487         134.584         134.724         134.874    
          135.024         135.164         135.296         135.420         135.537         135.647         135.752         135.854         135.956         136.058    
          136.160         136.265         136.373         136.484         136.599         136.718         136.841         136.968         137.098         137.234    
          137.374         137.514         137.652         137.788         137.927         138.070         138.222         138.378         138.537         138.699    
          138.862         139.029         139.215         139.429         139.648         139.854         140.069         140.295         140.528         140.766    
          141.001         141.221         141.390         133.601         133.611         133.626         133.644         133.663         133.683         133.703    
          133.724         133.745         133.767         133.789         133.812         133.836         133.860         133.885         133.911         133.938    
          133.967         133.996         134.027         134.060         134.093         134.127         134.162         134.197         134.233         134.270    
          134.308         134.347         134.388         134.432         134.475         134.436         134.470         134.535         134.588         134.523    
          134.584         134.693         134.842         134.991         135.132         135.261         135.381         135.495         135.603         135.706    
          135.806         135.907         136.009         136.113         136.221         136.333         136.449         136.570         136.695         136.823    
          136.955         137.090         137.229         137.372         137.515         137.655         137.794         137.936         138.083         138.237    
          138.396         138.557         138.720         138.884         139.048         139.238         139.450         139.656         139.848         140.049    
          140.259         140.479         140.705         140.934         141.156         141.334         133.604         133.614         133.630         133.648    
          133.667         133.688         133.709         133.731         133.753         133.776         133.800         133.823         133.848         133.873    
          133.900         133.927         133.955         133.985         134.016         134.048         134.081         134.116         134.151         134.187    
          134.224         134.262         134.300         134.339         134.377         134.417         134.466         134.523         134.579         134.527    
          134.580         134.677         134.821         134.967         135.105         135.231         135.347         135.457         135.561         135.662    
          135.760         135.859         135.961         136.067         136.178         136.294         136.416         136.543         136.674         136.808    
          136.946         137.086         137.229         137.374         137.518         137.660         137.802         137.947         138.096         138.252    
          138.413         138.577         138.740         138.904         139.074         139.263         139.464         139.657         139.841         140.031    
          140.230         140.438         140.654         140.876         141.096         141.274         133.607         133.618         133.633         133.652    
          133.672         133.693         133.715         133.738         133.761         133.784         133.809         133.834         133.860         133.886    
          133.914         133.942         133.972         134.003         134.035         134.069         134.103         134.139         134.176         134.214    
          134.252         134.292         134.333         134.375         134.417         134.460         134.505         134.542         134.586         134.559    
          134.599         134.679         134.816         134.953         135.085         135.206         135.317         135.421         135.520         135.618    
          135.714         135.811         135.911         136.018         136.134         136.256         136.385         136.518         136.656         136.797    
          136.941         137.087         137.233         137.379         137.524         137.668         137.813         137.959         138.110         138.268    
          138.430         138.596         138.762         138.929         139.102         139.286         139.474         139.656         139.834         140.016    
          140.206         140.404         140.611         140.827         141.042         141.215         133.611         133.622         133.638         133.656    
          133.676         133.698         133.720         133.743         133.767         133.792         133.818         133.844         133.870         133.898    
          133.927         133.956         133.987         134.020         134.053         134.088         134.124         134.162         134.200         134.240    
          134.281         134.324         134.368         134.414         134.460         134.508         134.559         134.590         134.624         134.617    
          134.649         134.675         134.725         134.696         134.747         134.829         134.953         135.072         135.186         135.290    
          135.388         135.481         135.573         135.665         135.759         135.858         135.967         136.086         136.216         136.353    
          136.496         136.641         136.789         136.939         137.090         137.240         137.389         137.534         137.678         137.824    
          137.973         138.126         138.285         138.449         138.615         138.782         138.951         139.126         139.308         139.485    
          139.657         139.830         140.005         140.186         140.376         140.577         140.785         140.994         141.164         133.614    
          133.627         133.643         133.660         133.680         133.702         133.725         133.749         133.774         133.799         133.825    
          133.853         133.880         133.909         133.939         133.970         134.002         134.036         134.071         134.108         134.146    
          134.184         134.225         134.266         134.310         134.356         134.404         134.453         134.504         134.557         134.614    
          134.678         134.729         134.774         134.750         134.794         134.858         134.963         135.068         135.171         135.267    
          135.357         135.442         135.527         135.613         135.703         135.800         135.909         136.034         136.173         136.322    
          136.475         136.630         136.785         136.941         137.097         137.252         137.402         137.547         137.692         137.838    
          137.989         138.143         138.303         138.468         138.635         138.802         138.974         139.149         139.325         139.496    
          139.661         139.829         139.998         140.173         140.356         140.549         140.752         140.957         141.126         133.636    
          133.648         133.665         133.684         133.706         133.729         133.753         133.779         133.805         133.832         133.860    
          133.889         133.919         133.950         133.983         134.017         134.052         134.089         134.127         134.166         134.207    
          134.249         134.292         134.339         134.387         134.438         134.490         134.544         134.602         134.662         134.728    
          134.776         134.816         134.792         134.831         134.886         134.976         135.068         135.160         135.246         135.327    
          135.405         135.481         135.559         135.642         135.736         135.846         135.977         136.129         136.292         136.458    
          136.623         136.786         136.947         137.108         137.265         137.416         137.562         137.707         137.855         138.006    
          138.162         138.323         138.488         138.655         138.822         138.994         139.169         139.340         139.506         139.669    
          139.831         139.996         140.165         140.343         140.531         140.731         140.932         141.098         133.655         133.670    
          133.689         133.709         133.732         133.757         133.783         133.810         133.838         133.868         133.898         133.929    
          133.962         133.995         134.031         134.068         134.106         134.146         134.187         134.229         134.273         134.319    
          134.367         134.417         134.470         134.524         134.581         134.641         134.703         134.747         134.775         134.760    
          134.794         134.810         134.847         134.827         134.860         134.909         134.989         135.070         135.152         135.228    
          135.301         135.371         135.440         135.512         135.587         135.667         135.710         135.642         135.686         135.770    
          135.821         135.741         135.802         135.920         136.089         136.268         136.447         136.621         136.791         136.958    
          137.123         137.282         137.433         137.579         137.725         137.873         138.025         138.182         138.343         138.506    
          138.672         138.839         139.012         139.187         139.356         139.519         139.679         139.837         139.998         140.164    
          140.339         140.524         140.720         140.918         141.081         133.677         133.694         133.713         133.736         133.761    
          133.787         133.815         133.844         133.874         133.906         133.938         133.972         134.008         134.044         134.083    
          134.123         134.164         134.207         134.251         134.296         134.344         134.394         134.446         134.500         134.556    
          134.614         134.674         134.737         134.778         134.809         134.793         134.822         134.842         134.874         134.857    
          134.884         134.910         134.940         134.919         134.953         135.002         135.076         135.149         135.218         135.283    
          135.346         135.411         135.481         135.544         135.576         135.534         135.571         135.621         135.669         135.615    
          135.662         135.723         135.785         135.715         135.777         135.860         135.928         135.848         135.928         136.066    
          136.258         136.447         136.628         136.804         136.974         137.139         137.299         137.451         137.597         137.743    
          137.893         138.046         138.203         138.363         138.525         138.690         138.858         139.030         139.203         139.370    
          139.535         139.694         139.850         140.008         140.171         140.342         140.525         140.719         140.915         141.080    
          133.701         133.719         133.740         133.764         133.790         133.819         133.849         133.880         133.913         133.947    
          133.982         134.019         134.058         134.098         134.139         134.183         134.227         134.272         134.320         134.369    
          134.420         134.474         134.529         134.586         134.644         134.704         134.767         134.830         134.894         134.936    
          134.968         134.951         134.981         135.004         135.033         135.018         135.047         135.072         135.101         135.084    
          135.112         135.140         135.168         135.149         135.177         135.206         135.233         135.214         135.241         135.269    
          135.295         135.277         135.304         135.331         135.357         135.341         135.368         135.393         135.422         135.406    
          135.436         135.463         135.495         135.477         135.509         135.536         135.574         135.553         135.589         135.619    
          135.666         135.636         135.682         135.719         135.780         135.735         135.795         135.851         135.933         135.865    
          135.944         136.071         136.267         136.461         136.647         136.824         136.993         137.159         137.320         137.472    
          137.619         137.765         137.915         138.070         138.228         138.388         138.549         138.713         138.878         139.049    
          139.220         139.389         139.553         139.712         139.867         140.022         140.183         140.355         140.539         140.729    
          140.922         141.086         133.727         133.745         133.768         133.794         133.823         133.853         133.885         133.919    
          133.955         133.992         134.030         134.071         134.112         134.156         134.201         134.246         134.294         134.342    
          134.393         134.446         134.500         134.556         134.613         134.673         134.734         134.797         134.861         134.926    
          134.992         135.059         135.125         135.191         135.259         135.326         135.395         135.465         135.537         135.616    
          135.668         135.710         135.702         135.743         135.760         135.818         135.798         135.847         135.886         135.964    
          135.915         135.987         136.054         136.132         136.069         136.155         136.292         136.488         136.675         136.851    
          137.021         137.187         137.346         137.497         137.644         137.792         137.942         138.098         138.259         138.419    
          138.579         138.741         138.906         139.074         139.243         139.410         139.574         139.732         139.886         140.040    
          140.202         140.374         140.557         140.749         140.941         141.103         133.754         133.774         133.799         133.827    
          133.858         133.890         133.925         133.962         134.000         134.041         134.083         134.126         134.172         134.218    
          134.266         134.314         134.364         134.416         134.470         134.525         134.582         134.641         134.701         134.763    
          134.827         134.893         134.961         135.030         135.101         135.175         135.249         135.324         135.398         135.473    
          135.547         135.623         135.704         135.790         135.889         135.959         136.024         135.999         136.069         136.100    
          136.186         136.146         136.214         136.342         136.533         136.716         136.891         137.060         137.222         137.378    
          137.528         137.676         137.823         137.975         138.133         138.295         138.456         138.615         138.777         138.941    
          139.105         139.270         139.435         139.599         139.757         139.910         140.065         140.227         140.399         140.581    
          140.772         140.967         141.128         133.784         133.806         133.832         133.862         133.895         133.931         133.969    
          134.009         134.051         134.095         134.140         134.187         134.235         134.285         134.335         134.386         134.439    
          134.494         134.551         134.609         134.668         134.729         134.793         134.859         134.927         134.998         135.070    
          135.147         135.227         135.310         135.391         135.473         135.554         135.635         135.717         135.802         135.892    
          135.949         135.991         135.992         136.047         136.052         136.122         136.107         136.168         136.251         136.418    
          136.595         136.770         136.942         137.107         137.266         137.419         137.569         137.716         137.862         138.014    
          138.174         138.337         138.499         138.660         138.821         138.983         139.141         139.301         139.466         139.629    
          139.785         139.939         140.095         140.258         140.430         140.611         140.802         140.998         141.161         133.816    
          133.839         133.867         133.900         133.936         133.975         134.016         134.060         134.105         134.153         134.202    
          134.252         134.303         134.355         134.408         134.462         134.518         134.576         134.635         134.695         134.758    
          134.823         134.891         134.962         135.036         135.113         135.194         135.281         135.372         135.461         135.550    
          135.639         135.728         135.815         135.905         135.999         136.053         136.103         136.103         136.153         136.164    
          136.229         136.217         136.276         136.352         136.505         136.671         136.837         137.002         137.164         137.320    
          137.471         137.620         137.767         137.911         138.062         138.222         138.386         138.550         138.711         138.871    
          139.029         139.183         139.339         139.500         139.660         139.816         139.970         140.128         140.293         140.465    
          140.646         140.837         141.035         141.200         133.850         133.875         133.906         133.941         133.981         134.023    
          134.068         134.115         134.165         134.216         134.268         134.320         134.374         134.429         134.485         134.543    
          134.602         134.662         134.723         134.787         134.855         134.926         135.000         135.078         135.159         135.247    
          135.340         135.438         135.537         135.636         135.734         135.828         135.919         136.013         136.109         136.211    
          136.276         136.335         136.318         136.377         136.451         136.597         136.754         136.913         137.073         137.231    
          137.385         137.533         137.682         137.829         137.971         138.120         138.277         138.440         138.605         138.765    
          138.923         139.076         139.227         139.380         139.537         139.695         139.849         140.005         140.165         140.331    
          140.505         140.685         140.877         141.074         141.238         133.887         133.914         133.948         133.987         134.030    
          134.076         134.125         134.176         134.228         134.282         134.337         134.393         134.450         134.508         134.567    
          134.628         134.689         134.752         134.819         134.889         134.963         135.041         135.124         135.212         135.305    
          135.407         135.515         135.624         135.732         135.835         135.933         136.031         136.130         136.221         136.315    
          136.373         136.431         136.415         136.471         136.546         136.690         136.841         136.995         137.153         137.307    
          137.458         137.605         137.754         137.899         138.040         138.186         138.338         138.497         138.660         138.819    
          138.972         139.122         139.273         139.424         139.579         139.733         139.887         140.046         140.207         140.373    
          140.547         140.728         140.919         141.116         141.280         133.927         133.958         133.996         134.038         134.085    
          134.134         134.186         134.240         134.296         134.353         134.411         134.470         134.531         134.592         134.654    
          134.718         134.784         134.852         134.926         135.004         135.087         135.176         135.272         135.374         135.485    
          135.603         135.723         135.839         135.951         136.057         136.161         136.255         136.338         136.424         136.472    
          136.526         136.519         136.571         136.641         136.782         136.929         137.082         137.236         137.388         137.537    
          137.686         137.834         137.975         138.113         138.253         138.398         138.554         138.713         138.869         139.020    
          139.169         139.320         139.470         139.622         139.775         139.930         140.090         140.251         140.417         140.591    
          140.772         140.963         141.161         141.323         133.973         134.008         134.049         134.095         134.144         134.196    
          134.251         134.308         134.367         134.428         134.490         134.553         134.617         134.682         134.748         134.817    
          134.889         134.966         135.049         135.137         135.235         135.340         135.452         135.576         135.708         135.840    
          135.968         136.087         136.196         136.295         136.381         136.459         136.539         136.582         136.633         136.629    
          136.679         136.742         136.876         137.020         137.171         137.324         137.475         137.624         137.773         137.916    
          138.050         138.182         138.317         138.461         138.611         138.766         138.917         139.065         139.216         139.325    
          139.390         139.340         139.418         139.475         139.537         139.500         139.563         139.624         139.690         139.651    
          139.718         139.779         139.847         139.807         139.876         139.937         140.002         139.964         140.030         140.092    
          140.160         140.119         140.186         140.252         140.323         140.274         140.353         140.416         140.490         140.438    
          140.519         140.586         140.662         140.606         140.689         140.816         141.009         141.207         141.369         134.027    
          134.063         134.106         134.154         134.206         134.262         134.320         134.381         134.444         134.509         134.575    
          134.642         134.711         134.781         134.853         134.929         135.011         135.100         135.196         135.302         135.418    
          135.546         135.686         135.832         135.976         136.111         136.229         136.334         136.426         136.502         136.573    
          136.647         136.689         136.737         136.731         136.778         136.841         136.971         137.113         137.264         137.416    
          137.564         137.712         137.857         137.991         138.118         138.249         138.384         138.524         138.669         138.775    
          138.837         138.790         138.863         138.919         138.982         138.943         139.005         139.066         139.131         139.091    
          139.155         139.216         139.281         139.242         139.307         139.364         139.441         139.394         139.459         139.571    
          139.728         139.886         140.041         140.198         140.305         140.381         140.335         140.405         140.464         140.546    
          140.496         140.569         140.633         140.719         140.664         140.738         140.815         140.893         140.834         140.921    
          141.054         141.251         141.415         134.083         134.121         134.166         134.217         134.272         134.332         134.394    
          134.459         134.527         134.597         134.668         134.741         134.816         134.893         134.974         135.062         135.158    
          135.264         135.382         135.512         135.657         135.812         135.968         136.115         136.249         136.365         136.463    
          136.545         136.613         136.677         136.711         136.739         136.747         136.785         136.781         136.830         136.828    
          136.866         136.935         137.066         137.208         137.358         137.505         137.650         137.793         137.930         138.059    
          138.184         138.314         138.448         138.543         138.602         138.562         138.632         138.679         138.736         138.706    
          138.763         138.812         138.885         138.842         138.903         139.011         139.166         139.322         139.479         139.636    
          139.796         139.957         140.112         140.263         140.417         140.575         140.740         140.862         140.948         140.886    
          140.963         141.048         141.130         141.063         141.155         141.293         141.453         134.142         134.182         134.230    
          134.284         134.343         134.407         134.474         134.545         134.619         134.696         134.773         134.854         134.936    
          135.025         135.120         135.226         135.343         135.473         135.617         135.776         135.940         136.100         136.248    
          136.378         136.488         136.580         136.654         136.717         136.771         136.796         136.831         136.832         136.865    
          136.915         137.031         137.161         137.299         137.442         137.586         137.729         137.867         138.000         138.126    
          138.249         138.377         138.466         138.520         138.488         138.556         138.591         138.662         138.628         138.684    
          138.780         138.926         139.082         139.240         139.398         139.556         139.715         139.875         140.030         140.180    
          140.330         140.479         140.630         140.785         140.954         141.086         141.178         141.103         141.185         141.284    
          141.364         141.293         141.372         141.452         141.459         134.203         134.246         134.297         134.355         134.419    
          134.488         134.563         134.642         134.724         134.809         134.896         134.986         135.083         135.188         135.304    
          135.432         135.575         135.730         135.900         136.070         136.234         136.380         136.507         136.612         136.700    
          136.770         136.824         136.871         136.886         136.915         136.934         136.963         136.964         137.012         137.012    
          137.059         137.125         137.250         137.383         137.525         137.666         137.804         137.938         138.068         138.190    
          138.312         138.440         138.524         138.592         138.552         138.620         138.709         138.854         139.006         139.165    
          139.323         139.480         139.641         139.804         139.962         140.114         140.261         140.405         140.545         140.683    
          140.827         140.982         141.152         141.332         141.481         134.268         134.313         134.368         134.431         134.503    
          134.581         134.666         134.756         134.848         134.944         135.044         135.152         135.269         135.397         135.539    
          135.695         135.865         136.044         136.219         136.381         136.523         136.642         136.742         136.826         136.889    
          136.938         136.986         137.038         137.072         137.118         137.119         137.164         137.224         137.342         137.472    
          137.607         137.743         137.878         138.011         138.136         138.255         138.379         138.467         138.520         138.493    
          138.561         138.591         138.659         138.633         138.689         138.787         138.940         139.098         139.261         139.422    
          139.583         139.748         139.915         140.072         140.221         140.359         140.490         140.614         140.735         140.860    
          140.995         141.145         141.321         141.470         134.335         134.384         134.445         134.518         134.601         134.693    
          134.790         134.892         134.999         135.113         135.234         135.366         135.511         135.668         135.842         136.025    
          136.208         136.383         136.542         136.677         136.786         136.879         136.955         137.012         137.060         137.107    
          137.159         137.186         137.224         137.237         137.277         137.278         137.324         137.327         137.373         137.438    
          137.561         137.690         137.821         137.951         138.039         138.092         138.066         138.132         138.162         138.212    
          138.199         138.249         138.281         138.332         138.319         138.371         138.404         138.459         138.444         138.501    
          138.533         138.603         138.578         138.635         138.731         138.885         139.042         139.206         139.375         139.545    
          139.712         139.884         140.055         140.214         140.356         140.478         140.589         140.690         140.785         140.884    
          140.987         141.109         141.303         141.453         134.407         134.464         134.536         134.623         134.722         134.829    
          134.944         135.065         135.195         135.334         135.486         135.649         135.826         136.008         136.196         136.380    
          136.554         136.707         136.836         136.943         137.027         137.096         137.149         137.194         137.236         137.284    
          137.348         137.387         137.430         137.436         137.480         137.488         137.537         137.535         137.584         137.651    
          137.774         137.857         137.909         137.888         137.954         137.980         138.033         138.023         138.076         138.103    
          138.169         138.146         138.200         138.282         138.409         138.541         138.686         138.839         138.996         139.159    
          139.332         139.515         139.699         139.879         140.063         140.236         140.385         140.513         140.615         140.698    
          140.773         140.834         140.903         140.962         141.002         134.492         134.562         134.650         134.755         134.874    
          135.004         135.144         135.294         135.456         135.630         135.812         135.997         136.187         136.379         136.564    
          136.734         136.882         137.005         137.107         137.190         137.256         137.302         137.340         137.375         137.418    
          137.475         137.553         137.596         137.642         137.648         137.696         137.701         137.747         137.755         137.803    
          137.815         137.867         137.870         137.924         137.936         138.004         137.993         138.046         138.122         138.250    
          138.381         138.511         138.652         138.801         138.956         139.116         139.292         139.489         139.692         139.895    
          140.094         140.277         140.442         140.586         140.701         140.780         140.824         140.878         140.879         140.933    
          134.598         134.684         134.794         134.926         135.075         135.239         135.414         135.602         135.795         135.988    
          136.184         136.382         136.578         136.764         136.931         137.074         137.192         137.289         137.368         137.430    
          137.475         137.507         137.536         137.574         137.627         137.700         137.781         137.886         138.006         138.127    
          138.251         138.379         138.506         138.638         138.776         138.925         139.084         139.254         139.451         139.677    
          139.910         140.129         140.332         140.515         140.680         140.827         140.938         140.993         140.950         141.045    
          134.733         134.842         134.987         135.160         135.352         135.556         135.766         135.973         136.180         136.387    
          136.594         136.796         136.984         137.148         137.285         137.396         137.488         137.563         137.624         137.671    
          137.706         137.736         137.768         137.818         137.895         137.979         138.084         138.198         138.311         138.429    
          138.548         138.664         138.787         138.919         139.070         139.236         139.419         139.630         139.890         140.141    
          140.378         140.592         140.780         140.944         141.119         141.252         141.324         134.906         135.063         135.264    
          135.489         135.720         135.943         136.164         136.385         136.606         136.823         137.033         137.223         137.383    
          137.513         137.616         137.702         137.776         137.846         137.906         137.950         137.984         138.027         138.105    
          138.209         138.309         138.412         138.505         138.598         138.693         138.782         138.870         138.974         139.092    
          139.243         139.413         139.601         139.801         140.092         140.382         140.650         140.889         141.081         141.214    
          135.166         135.393         135.652         135.898         136.132         136.366         136.603         136.840         137.071         137.292    
          137.484         137.640         137.760         137.850         137.934         137.997         138.103         138.200         138.254         138.291    
          138.353         138.484         138.656         138.781         138.876         138.950         138.999         139.050         139.084         139.112    
          139.180         139.275         139.420         139.591         139.757         139.868         135.562         135.844         136.092         136.330    
          136.575         136.830         137.086         137.336         137.571         137.769         137.924         138.029         138.096         138.190    
          138.188         138.402         136.072         136.301         136.527         136.783         137.061         137.344         137.626         137.884    
          138.099         138.256         138.340         138.323         138.551         136.511         136.698         136.971         137.293         137.619    
          137.960         138.255         138.496         138.667         138.762    
1
  HEAD IN LAYER   3 AT END OF TIME STEP   1 IN STRESS PERIOD    2
  ---------------------------------------------------------------------------

                1               2               3               4               5               6               7               8               9              10
               11              12              13              14              15              16              17              18              19              20
               21              22              23              24              25              26              27              28              29              30
               31              32              33              34              35              36              37              38              39              40
               41              42              43              44              45              46              47              48              49              50
               51              52              53              54              55              56              57              58              59              60
               61              62              63              64              65              66              67              68              69              70
               71              72              73              74              75              76              77              78              79              80
               81              82              83              84              85              86              87              88              89              90
               91              92              93              94              95              96              97              98              99             100
              101             102             103             104             105             106             107             108             109             110
              111             112             113             114             115             116             117             118             119             120
              121             122             123             124             125             126             127             128             129             130
              131             132             133             134             135             136             137             138             139             140
              141             142             143             144             145             146             147             148             149             150
              151             152             153             154             155             156             157             158             159             160
              161             162             163             164             165             166             167             168             169             170
              171             172             173             174             175             176             177             178             179             180
              181             182             183             184             185             186             187             188             189             190
              191             192             193             194             195             196             197             198             199             200
              201             202             203             204             205             206             207             208             209             210
              211             212             213             214             215             216             217             218             219             220
              221             222             223             224             225             226             227             228             229             230
              231             232             233             234             235             236             237             238             239             240
              241             242             243             244             245             246             247             248             249             250
              251             252             253             254             255             256             257             258             259             260
              261             262             263             264             265             266             267             268             269             270
              271             272             273             274             275             276             277             278             279             280
              281             282             283             284             285             286             287             288             289             290
              291             292             293             294             295             296             297             298             299             300
              301             302             303             304             305             306             307             308             309             310
              311             312             313             314             315             316             317             318             319             320
              321             322             323             324             325             326             327             328             329             330
              331             332             333             334             335             336             337             338             339             340
              341             342             343             344             345             346             347             348             349             350
              351             352             353             354             355             356             357             358             359             360
              361             362             363             364             365             366             367             368             369             370
              371             372             373             374             375             376             377             378             379             380
              381             382             383             384             385             386             387             388             389             390
              391             392             393             394             395             396             397             398             399             400
              401             402             403             404             405             406             407             408             409             410
              411             412             413             414             415             416             417             418             419             420
              421             422             423             424             425             426             427             428             429             430
              431             432             433             434             435             436             437             438             439             440
              441             442             443             444             445             446             447             448             449             450
              451             452             453             454             455             456             457             458             459             460
              461             462             463             464             465             466             467             468             469             470
              471             472             473             474             475             476             477             478             479             480
              481             482             483             484             485             486             487             488             489             490
              491             492             493             494             495             496             497             498             499             500
              501             502             503             504             505             506             507             508             509             510
              511             512             513             514             515             516             517             518             519             520
              521             522             523             524             525             526             527             528             529             530
              531             532             533             534             535             536             537             538             539             540
              541             542             543             544             545             546             547             548             549             550
              551             552             553             554             555             556             557             558             559             560
              561             562             563             564             565             566             567             568             569             570
              571             572             573             574             575             576             577             578             579             580
              581             582             583             584             585             586             587             588             589             590
              591             592             593             594             595             596             597             598             599             600
              601             602             603             604             605             606             607             608             609             610
              611             612             613             614             615             616             617             618             619             620
              621             622             623             624             625             626             627             628             629             630
              631             632             633             634             635             636             637             638             639             640
              641             642             643             644             645             646             647             648             649             650
              651             652             653             654             655             656             657             658             659             660
              661             662             663             664             665             666             667             668             669             670
              671             672             673             674             675             676             677             678             679             680
              681             682             683             684             685             686             687             688             689             690
              691             692             693             694             695             696             697             698             699             700
              701             702             703             704             705             706             707             708             709             710
              711             712             713             714             715             716             717             718             719             720
              721             722             723             724             725             726             727             728             729             730
              731             732             733             734             735             736             737             738             739             740
              741             742             743             744             745             746             747             748             749             750
              751             752             753             754             755             756             757             758             759             760
              761             762             763             764             765             766             767             768             769             770
              771             772             773             774             775             776             777             778             779             780
              781             782             783             784             785             786             787             788             789             790
              791             792             793             794             795             796             797             798             799             800
              801             802             803             804             805             806             807             808             809             810
              811             812             813             814             815             816             817             818             819             820
              821             822             823             824             825             826             827             828             829             830
              831             832             833             834             835             836             837             838             839             840
              841             842             843             844             845             846             847             848             849             850
              851             852             853             854             855             856             857             858             859             860
              861             862             863             864             865             866             867             868             869             870
              871             872             873             874             875             876             877             878             879             880
              881             882             883             884             885             886             887             888             889             890
              891             892             893             894             895             896             897             898             899             900
              901             902             903             904             905             906             907             908             909             910
              911             912             913             914             915             916             917             918             919             920
              921             922             923             924             925             926             927             928             929             930
              931             932             933             934             935             936             937             938             939             940
              941             942             943             944             945             946             947             948             949             950
              951             952             953             954             955             956             957             958             959             960
              961             962             963             964             965             966             967             968             969             970
              971             972             973             974             975             976             977             978             979             980
              981             982             983             984             985             986             987             988             989             990
              991             992             993             994             995             996             997             998             999            1000
             1001            1002            1003            1004            1005            1006            1007            1008            1009            1010
             1011            1012            1013            1014            1015            1016            1017            1018            1019            1020
             1021            1022            1023            1024            1025            1026            1027            1028            1029            1030
             1031            1032            1033            1034            1035            1036            1037            1038            1039            1040
             1041            1042            1043            1044            1045            1046            1047            1048            1049            1050
             1051            1052            1053            1054            1055            1056            1057            1058            1059            1060
             1061            1062            1063            1064            1065            1066            1067            1068            1069            1070
             1071            1072            1073            1074            1075            1076            1077            1078            1079            1080
             1081            1082            1083            1084            1085            1086            1087            1088            1089            1090
             1091            1092            1093            1094            1095            1096            1097            1098            1099            1100
             1101            1102            1103            1104            1105            1106            1107            1108            1109            1110
             1111            1112            1113            1114            1115            1116            1117            1118            1119            1120
             1121            1122            1123            1124            1125            1126            1127            1128            1129            1130
             1131            1132            1133            1134            1135            1136            1137            1138            1139            1140
             1141            1142            1143            1144            1145            1146            1147            1148            1149            1150
             1151            1152            1153            1154            1155            1156            1157            1158            1159            1160
             1161            1162            1163            1164            1165            1166            1167            1168            1169            1170
             1171            1172            1173            1174            1175            1176            1177            1178            1179            1180
             1181            1182            1183            1184            1185            1186            1187            1188            1189            1190
             1191            1192            1193            1194            1195            1196            1197            1198            1199            1200
             1201            1202            1203            1204            1205            1206            1207            1208            1209            1210
             1211            1212            1213            1214            1215            1216            1217            1218            1219            1220
             1221            1222            1223            1224            1225            1226            1227            1228            1229            1230
             1231            1232            1233            1234            1235            1236            1237            1238            1239            1240
             1241            1242            1243            1244            1245            1246            1247            1248            1249            1250
             1251            1252            1253            1254            1255            1256            1257            1258            1259            1260
             1261            1262            1263            1264            1265            1266            1267            1268            1269            1270
             1271            1272            1273            1274            1275            1276            1277            1278            1279            1280
             1281            1282            1283            1284            1285            1286            1287            1288            1289            1290
             1291            1292            1293            1294            1295            1296            1297            1298            1299            1300
             1301            1302            1303            1304            1305            1306            1307            1308            1309            1310
             1311            1312            1313            1314            1315            1316            1317            1318            1319            1320
             1321            1322            1323            1324            1325            1326            1327            1328            1329            1330
             1331            1332            1333            1334            1335            1336            1337            1338            1339            1340
             1341            1342            1343            1344            1345            1346            1347            1348            1349            1350
             1351            1352            1353            1354            1355            1356            1357            1358            1359            1360
             1361            1362            1363            1364            1365            1366            1367            1368            1369            1370
             1371            1372            1373            1374            1375            1376            1377            1378            1379            1380
             1381            1382            1383            1384            1385            1386            1387            1388            1389            1390
             1391            1392            1393            1394            1395            1396            1397            1398            1399            1400
             1401            1402            1403            1404            1405            1406            1407            1408            1409            1410
             1411            1412            1413            1414            1415            1416            1417            1418            1419            1420
             1421            1422            1423            1424            1425            1426            1427            1428            1429            1430
             1431            1432            1433            1434            1435            1436            1437            1438            1439            1440
             1441            1442            1443            1444            1445            1446            1447            1448            1449            1450
             1451            1452            1453            1454            1455            1456            1457            1458            1459            1460
             1461            1462            1463            1464            1465            1466            1467            1468            1469            1470
             1471            1472            1473            1474            1475            1476            1477            1478            1479            1480
             1481            1482            1483            1484            1485            1486            1487            1488            1489            1490
             1491            1492            1493            1494            1495            1496            1497            1498            1499            1500
             1501            1502            1503            1504            1505            1506            1507            1508            1509            1510
             1511            1512            1513            1514            1515            1516            1517            1518            1519            1520
             1521            1522            1523            1524            1525            1526            1527            1528            1529            1530
             1531            1532            1533            1534            1535            1536            1537            1538            1539            1540
             1541            1542            1543            1544            1545            1546            1547            1548            1549            1550
             1551            1552            1553            1554            1555            1556            1557            1558            1559            1560
             1561            1562            1563            1564            1565            1566            1567            1568            1569            1570
             1571            1572            1573            1574            1575            1576            1577            1578            1579            1580
             1581            1582            1583            1584            1585            1586            1587            1588            1589            1590
             1591            1592            1593            1594            1595            1596            1597            1598            1599            1600
             1601            1602            1603            1604            1605            1606            1607            1608            1609            1610
             1611            1612            1613            1614            1615            1616            1617            1618            1619            1620
             1621            1622            1623            1624            1625            1626            1627            1628            1629            1630
             1631            1632            1633            1634            1635            1636            1637            1638            1639            1640
             1641            1642            1643            1644            1645            1646            1647            1648            1649            1650
             1651            1652            1653            1654            1655            1656            1657            1658            1659            1660
             1661            1662            1663            1664            1665            1666            1667            1668            1669            1670
             1671            1672            1673            1674            1675            1676            1677            1678            1679            1680
             1681            1682            1683            1684            1685            1686            1687            1688            1689            1690
             1691            1692            1693            1694            1695            1696            1697            1698            1699            1700
             1701            1702            1703            1704            1705            1706            1707            1708            1709            1710
             1711            1712            1713            1714            1715            1716            1717            1718            1719            1720
             1721            1722            1723            1724            1725            1726            1727            1728            1729            1730
             1731            1732            1733            1734            1735            1736            1737            1738            1739            1740
             1741            1742            1743            1744            1745            1746            1747            1748            1749            1750
             1751            1752            1753            1754            1755            1756            1757            1758            1759            1760
             1761            1762            1763            1764            1765            1766            1767            1768            1769            1770
             1771            1772            1773            1774            1775            1776            1777            1778            1779            1780
             1781            1782            1783            1784            1785            1786            1787            1788            1789            1790
             1791            1792            1793            1794            1795            1796            1797            1798            1799            1800
             1801            1802            1803            1804            1805            1806            1807            1808            1809            1810
             1811            1812            1813            1814            1815            1816            1817            1818            1819            1820
             1821            1822            1823            1824            1825            1826            1827            1828            1829            1830
             1831            1832            1833            1834            1835            1836            1837            1838            1839            1840
             1841            1842            1843            1844            1845            1846            1847            1848            1849            1850
             1851            1852            1853            1854            1855            1856            1857            1858            1859            1860
             1861            1862            1863            1864            1865            1866            1867            1868            1869            1870
             1871            1872            1873            1874            1875            1876            1877            1878            1879            1880
             1881            1882            1883            1884            1885            1886            1887            1888            1889            1890
             1891            1892            1893            1894            1895            1896            1897            1898            1899            1900
             1901            1902            1903            1904            1905            1906            1907            1908            1909            1910
             1911            1912            1913            1914            1915            1916            1917            1918            1919            1920
             1921            1922            1923            1924            1925            1926            1927            1928            1929            1930
             1931            1932            1933            1934            1935            1936            1937            1938            1939            1940
             1941            1942            1943            1944            1945            1946            1947            1948            1949            1950
             1951            1952            1953            1954            1955            1956            1957            1958            1959            1960
             1961            1962            1963            1964            1965            1966            1967            1968            1969            1970
             1971            1972            1973            1974            1975            1976            1977            1978            1979            1980
             1981            1982            1983            1984            1985            1986            1987            1988            1989            1990
             1991            1992            1993            1994            1995            1996            1997            1998            1999            2000
             2001            2002            2003            2004            2005            2006            2007            2008            2009            2010
             2011            2012            2013            2014            2015            2016            2017            2018            2019            2020
             2021            2022            2023            2024            2025            2026            2027            2028            2029            2030
             2031            2032            2033            2034            2035            2036            2037            2038            2039            2040
             2041            2042            2043            2044            2045            2046            2047            2048            2049            2050
             2051            2052            2053            2054            2055            2056            2057            2058            2059            2060
             2061            2062            2063            2064            2065            2066            2067            2068            2069            2070
             2071            2072            2073            2074            2075            2076            2077            2078            2079            2080
             2081            2082            2083            2084            2085            2086            2087            2088            2089            2090
             2091            2092            2093            2094            2095            2096            2097            2098            2099            2100
             2101            2102            2103            2104            2105            2106            2107            2108            2109            2110
             2111            2112            2113            2114            2115            2116            2117            2118            2119            2120
             2121            2122            2123            2124            2125            2126            2127            2128            2129            2130
             2131            2132            2133            2134            2135            2136            2137            2138            2139            2140
             2141            2142            2143            2144            2145            2146            2147            2148            2149            2150
             2151            2152            2153            2154            2155            2156            2157            2158            2159            2160
             2161            2162            2163            2164            2165            2166            2167            2168            2169            2170
             2171            2172            2173            2174            2175            2176            2177            2178            2179            2180
             2181            2182            2183            2184            2185            2186            2187            2188            2189            2190
             2191            2192            2193            2194            2195            2196            2197            2198            2199            2200
             2201            2202            2203            2204            2205            2206            2207            2208            2209            2210
             2211            2212            2213            2214            2215            2216            2217            2218            2219            2220
             2221            2222            2223            2224            2225            2226            2227            2228            2229            2230
             2231            2232            2233            2234            2235            2236            2237            2238            2239            2240
             2241            2242            2243            2244            2245            2246            2247            2248            2249            2250
             2251            2252            2253            2254            2255            2256            2257            2258            2259            2260
             2261            2262            2263            2264            2265            2266            2267            2268            2269            2270
             2271            2272            2273            2274            2275            2276            2277            2278            2279            2280
             2281            2282            2283            2284            2285            2286            2287            2288            2289            2290
             2291            2292            2293            2294            2295            2296            2297            2298            2299            2300
             2301            2302            2303            2304            2305            2306            2307            2308            2309            2310
             2311            2312            2313            2314            2315            2316            2317            2318            2319            2320
             2321            2322            2323            2324            2325            2326            2327            2328            2329            2330
             2331            2332            2333            2334            2335            2336            2337            2338            2339            2340
             2341            2342            2343            2344            2345            2346            2347            2348            2349            2350
             2351            2352            2353            2354            2355            2356            2357            2358            2359            2360
             2361            2362            2363            2364            2365            2366            2367            2368            2369            2370
             2371            2372            2373            2374            2375            2376            2377            2378            2379            2380
             2381            2382            2383            2384            2385            2386            2387            2388            2389            2390
             2391            2392            2393            2394            2395            2396            2397            2398            2399            2400
             2401            2402            2403            2404            2405            2406            2407            2408            2409            2410
             2411            2412            2413            2414            2415            2416            2417            2418            2419            2420
             2421            2422            2423            2424            2425            2426            2427            2428            2429            2430
             2431            2432            2433            2434            2435            2436            2437            2438            2439            2440
             2441            2442            2443            2444            2445            2446            2447            2448            2449            2450
             2451            2452            2453            2454            2455            2456            2457            2458            2459            2460
             2461            2462            2463            2464            2465            2466            2467            2468            2469            2470
             2471            2472            2473            2474            2475            2476            2477            2478            2479            2480
             2481            2482            2483            2484            2485            2486            2487            2488            2489            2490
             2491            2492            2493            2494            2495            2496            2497            2498            2499            2500
             2501            2502            2503            2504            2505            2506            2507            2508            2509            2510
             2511            2512            2513            2514            2515            2516            2517            2518            2519            2520
             2521            2522            2523            2524            2525            2526            2527            2528            2529            2530
             2531            2532            2533            2534            2535            2536            2537            2538            2539            2540
             2541            2542            2543            2544            2545            2546            2547            2548            2549            2550
             2551            2552            2553            2554            2555            2556            2557            2558            2559            2560
             2561            2562            2563            2564            2565            2566            2567            2568            2569            2570
             2571            2572            2573            2574            2575            2576            2577            2578            2579            2580
             2581            2582            2583            2584            2585            2586            2587            2588            2589            2590
             2591            2592            2593            2594            2595            2596            2597            2598            2599            2600
             2601            2602            2603            2604            2605            2606            2607            2608            2609            2610
             2611            2612            2613            2614            2615            2616            2617            2618            2619            2620
             2621            2622            2623            2624            2625            2626            2627            2628            2629            2630
             2631            2632            2633            2634            2635            2636            2637            2638            2639            2640
             2641            2642            2643            2644            2645            2646            2647            2648            2649            2650
             2651            2652            2653            2654            2655            2656            2657            2658            2659            2660
             2661            2662            2663            2664            2665            2666            2667            2668            2669            2670
             2671            2672            2673            2674            2675            2676            2677            2678            2679            2680
             2681            2682            2683            2684            2685            2686            2687            2688            2689            2690
             2691            2692            2693            2694            2695            2696            2697            2698            2699            2700
             2701            2702            2703            2704            2705            2706            2707            2708            2709            2710
             2711            2712            2713            2714            2715            2716            2717            2718            2719            2720
             2721            2722            2723            2724            2725            2726            2727            2728            2729            2730
             2731            2732            2733            2734            2735            2736            2737            2738            2739            2740
             2741            2742            2743            2744            2745            2746            2747            2748            2749            2750
             2751            2752            2753            2754            2755            2756            2757            2758            2759            2760
             2761            2762            2763            2764            2765            2766            2767            2768            2769            2770
             2771            2772            2773            2774            2775            2776            2777            2778            2779            2780
             2781            2782            2783            2784            2785            2786            2787            2788            2789            2790
             2791            2792            2793            2794            2795            2796            2797            2798            2799            2800
             2801            2802            2803            2804            2805            2806            2807            2808            2809            2810
             2811            2812            2813            2814            2815            2816            2817            2818            2819            2820
             2821            2822            2823            2824            2825            2826            2827            2828            2829            2830
             2831            2832            2833            2834            2835            2836            2837            2838            2839            2840
             2841            2842            2843            2844            2845            2846            2847            2848            2849            2850
             2851            2852            2853            2854            2855            2856            2857            2858            2859            2860
             2861            2862            2863            2864            2865            2866            2867            2868            2869            2870
             2871            2872            2873            2874            2875            2876            2877            2878            2879            2880
             2881            2882            2883            2884            2885            2886            2887            2888            2889            2890
             2891            2892            2893            2894            2895            2896            2897            2898            2899            2900
             2901            2902            2903            2904            2905            2906            2907            2908            2909            2910
             2911            2912            2913            2914            2915            2916            2917            2918            2919            2920
             2921            2922            2923            2924            2925            2926            2927            2928            2929            2930
             2931            2932            2933            2934            2935            2936            2937            2938            2939            2940
             2941            2942            2943            2944            2945            2946            2947            2948            2949            2950
             2951            2952            2953            2954            2955            2956            2957            2958            2959            2960
             2961            2962            2963            2964            2965            2966            2967            2968            2969            2970
             2971            2972            2973            2974            2975            2976            2977            2978            2979            2980
             2981            2982            2983            2984            2985            2986            2987            2988            2989            2990
             2991            2992            2993            2994            2995            2996            2997            2998            2999            3000
             3001            3002            3003            3004            3005            3006            3007            3008            3009            3010
             3011            3012            3013            3014            3015            3016            3017            3018            3019            3020
             3021            3022            3023            3024            3025            3026            3027            3028            3029            3030
             3031            3032            3033            3034            3035            3036            3037            3038            3039            3040
             3041            3042            3043            3044            3045            3046            3047            3048            3049            3050
             3051            3052            3053            3054            3055            3056            3057            3058            3059            3060
             3061            3062            3063            3064            3065            3066            3067            3068            3069            3070
             3071            3072            3073            3074            3075            3076            3077            3078            3079            3080
             3081            3082            3083            3084            3085            3086            3087            3088            3089            3090
             3091            3092            3093            3094            3095            3096            3097            3098            3099            3100
             3101            3102            3103            3104            3105            3106            3107            3108            3109            3110
             3111            3112            3113            3114            3115            3116            3117            3118            3119            3120
             3121            3122            3123            3124            3125            3126            3127            3128            3129            3130
             3131            3132            3133            3134            3135
 ................................................................................................................................................................
   1      133.680         133.679         133.678         133.677         133.679         133.683         133.679         133.682         133.690         133.708    
          133.736         133.772         133.815         133.863         133.915         133.971         134.028         134.086         134.145         134.201    
          134.252         134.295         134.323         133.677         133.678         133.678         133.677         133.677         133.679         133.682    
          133.679         133.681         133.687         133.692         133.686         133.692         133.706         133.732         133.767         133.809    
          133.856         133.909         133.965         134.023         134.082         134.141         134.199         134.253         134.301         134.342    
          134.378         133.672         133.675         133.676         133.676         133.676         133.677         133.680         133.686         133.692    
          133.687         133.692         133.700         133.709         133.700         133.708         133.722         133.735         133.720         133.734    
          133.760         133.800         133.847         133.899         133.956         134.015         134.075         134.135         134.195         134.253    
          134.307         134.357         134.402         134.443         133.668         133.670         133.673         133.675         133.676         133.677    
          133.679         133.683         133.690         133.704         133.720         133.732         133.720         133.731         133.748         133.762    
          133.746         133.762         133.791         133.837         133.889         133.945         134.005         134.066         134.128         134.190    
          134.252         134.311         134.368         134.422         134.472         134.518         133.662         133.666         133.669         133.673    
          133.676         133.678         133.680         133.683         133.688         133.695         133.707         133.726         133.745         133.761    
          133.747         133.759         133.779         133.796         133.777         133.796         133.829         133.880         133.936         133.996    
          134.058         134.121         134.184         134.249         134.313         134.376         134.438         134.498         134.555         134.608    
          133.656         133.660         133.665         133.669         133.673         133.677         133.681         133.685         133.690         133.695    
          133.703         133.714         133.731         133.755         133.778         133.796         133.781         133.796         133.818         133.836    
          133.817         133.838         133.875         133.930         133.989         134.050         134.113         134.178         134.245         134.313    
          134.382         134.451         134.519         134.587         134.653         134.716         133.650         133.654         133.659         133.664    
          133.670         133.675         133.681         133.686         133.692         133.698         133.705         133.713         133.725         133.742    
          133.764         133.793         133.820         133.840         133.824         133.842         133.865         133.886         133.866         133.890    
          133.928         133.985         134.045         134.107         134.172         134.240         134.311         134.384         134.459         134.536    
          134.614         134.693         134.772         134.849         133.643         133.648         133.653         133.659         133.665         133.672    
          133.678         133.685         133.692         133.700         133.707         133.716         133.726         133.739         133.756         133.778    
          133.806         133.841         133.871         133.894         133.877         133.897         133.921         133.943         133.923         133.947    
          133.986         134.042         134.102         134.165         134.233         134.306         134.383         134.464         134.549         134.636    
          134.727         134.822         134.920         135.021         133.638         133.642         133.646         133.652         133.659         133.666    
          133.674         133.682         133.691         133.700         133.709         133.719         133.729         133.741         133.756         133.774    
          133.796         133.823         133.857         133.897         133.929         133.952         133.935         133.956         133.980         134.001    
          133.983         134.004         134.031         134.054         134.033         134.055         134.086         134.112         134.085         134.113    
          134.159         134.226         134.300         134.380         134.465         134.556         134.651         134.753         134.862         134.980    
          135.112         135.284         135.433         135.566         135.690         135.808         135.922         136.032         136.139         136.244    
          136.348         136.451         136.553         136.655         136.758         136.862         136.969         137.078         137.191         137.308    
          137.428         137.550         137.674         137.799         137.925         138.052         138.182         138.315         138.454         138.597    
          138.747         138.903         139.063         139.224         139.383         139.531         139.639         133.638         133.641         133.646    
          133.653         133.660         133.669         133.678         133.687         133.697         133.708         133.719         133.731         133.743    
          133.758         133.774         133.793         133.816         133.843         133.875         133.912         133.954         133.999         134.048    
          134.087         134.114         134.090         134.113         134.145         134.170         134.145         134.169         134.207         134.236    
          134.203         134.237         134.293         134.374         134.462         134.557         134.659         134.768         134.886         135.013    
          135.149         135.293         135.432         135.562         135.684         135.801         135.914         136.024         136.131         136.236    
          136.339         136.442         136.545         136.647         136.751         136.856         136.963         137.074         137.188         137.306    
          137.427         137.551         137.676         137.802         137.928         138.056         138.186         138.320         138.460         138.605    
          138.758         138.916         139.077         139.244         139.412         139.583         139.744         139.902         133.638         133.641    
          133.647         133.654         133.662         133.672         133.682         133.693         133.705         133.717         133.730         133.744    
          133.759         133.774         133.792         133.813         133.836         133.863         133.894         133.929         133.968         134.010    
          134.055         134.104         134.158         134.203         134.236         134.204         134.236         134.289         134.368         134.457    
          134.554         134.659         134.772         134.895         135.027         135.161         135.295         135.427         135.553         135.673    
          135.788         135.900         136.008         136.115         136.220         136.323         136.426         136.530         136.633         136.738    
          136.844         136.953         137.065         137.181         137.302         137.426         137.552         137.679         137.806         137.934    
          138.062         138.193         138.329         138.471         138.618         138.773         138.934         139.101         139.273         139.453    
          139.642         139.828         140.007         140.170         133.639         133.642         133.648         133.656         133.665         133.676    
          133.687         133.700         133.713         133.727         133.742         133.757         133.774         133.792         133.811         133.833    
          133.857         133.884         133.914         133.948         133.984         134.024         134.066         134.113         134.164         134.206    
          134.237         134.210         134.236         134.273         134.302         134.271         134.305         134.362         134.449         134.546    
          134.652         134.767         134.892         135.027         135.159         135.288         135.417         135.539         135.657         135.770    
          135.880         135.988         136.094         136.198         136.302         136.406         136.511         136.615         136.721         136.830    
          136.941         137.055         137.174         137.298         137.425         137.554         137.683         137.811         137.940         138.070    
          138.202         138.339         138.483         138.633         138.791         138.956         139.128         139.305         139.493         139.693    
          139.892         140.084         140.263         140.415         133.640         133.643         133.650         133.658         133.668         133.680    
          133.693         133.707         133.722         133.737         133.754         133.771         133.789         133.809         133.830         133.852    
          133.877         133.904         133.934         133.967         134.002         134.040         134.081         134.125         134.173         134.228    
          134.274         134.306         134.278         134.306         134.345         134.377         134.343         134.379         134.442         134.535    
          134.640         134.755         134.880         135.015         135.148         135.275         135.401         135.522         135.637         135.749    
          135.857         135.963         136.069         136.174         136.278         136.383         136.489         136.595         136.703         136.814    
          136.927         137.044         137.166         137.293         137.424         137.555         137.686         137.816         137.947         138.078    
          138.212         138.349         138.495         138.647         138.808         138.977         139.153         139.336         139.529         139.733    
          139.937         140.135         140.321         140.487         140.621         133.642         133.645         133.652         133.661         133.672    
          133.685         133.699         133.715         133.731         133.748         133.766         133.785         133.805         133.826         133.848    
          133.871         133.897         133.925         133.954         133.986         134.021         134.058         134.097         134.139         134.186    
          134.237         134.296         134.345         134.380         134.349         134.379         134.421         134.456         134.418         134.457    
          134.524         134.625         134.738         134.863         134.998         135.131         135.257         135.381         135.501         135.614    
          135.724         135.831         135.936         136.042         136.147         136.252         136.359         136.466         136.574         136.685    
          136.798         136.914         137.035         137.159         137.289         137.424         137.556         137.689         137.821         137.954    
          138.087         138.221         138.359         138.506         138.661         138.825         138.996         139.177         139.363         139.559    
          139.764         139.967         140.164         140.353         140.527         140.674         140.786         133.644         133.648         133.655    
          133.665         133.677         133.691         133.706         133.722         133.740         133.759         133.778         133.799         133.820    
          133.842         133.865         133.890         133.916         133.944         133.974         134.006         134.040         134.077         134.115    
          134.157         134.201         134.250         134.305         134.368         134.420         134.457         134.423         134.455         134.501    
          134.537         134.497         134.538         134.611         134.719         134.842         134.977         135.110         135.236         135.359    
          135.477         135.589         135.697         135.803         135.908         136.013         136.119         136.225         136.333         136.442    
          136.553         136.667         136.783         136.903         137.026         137.154         137.287         137.424         137.559         137.693    
          137.827         137.961         138.095         138.231         138.370         138.516         138.672         138.839         139.012         139.196    
          139.389         139.588         139.789         139.986         140.177         140.363         140.539         140.694         140.813         140.886    
          133.647         133.651         133.658         133.669         133.682         133.697         133.713         133.731         133.749         133.769    
          133.790         133.812         133.834         133.858         133.882         133.907         133.934         133.963         133.994         134.026    
          134.061         134.097         134.135         134.176         134.219         134.267         134.319         134.377         134.442         134.498    
          134.537         134.501         134.535         134.584         134.624         134.580         134.624         134.703         134.822         134.955    
          135.089         135.214         135.336         135.452         135.562         135.670         135.774         135.879         135.984         136.091    
          136.198         136.308         136.419         136.533         136.650         136.771         136.894         137.021         137.151         137.287    
          137.425         137.561         137.698         137.833         137.968         138.104         138.242         138.381         138.528         138.685    
          138.850         139.026         139.215         139.413         139.612         139.807         139.996         140.179         140.359         140.532    
          140.689         140.809         140.874         133.651         133.655         133.663         133.673         133.687         133.703         133.720    
          133.739         133.759         133.780         133.802         133.825         133.848         133.873         133.898         133.924         133.952    
          133.982         134.013         134.046         134.081         134.118         134.156         134.197         134.240         134.286         134.336    
          134.391         134.452         134.521         134.581         134.624         134.584         134.621         134.675         134.718         134.670    
          134.720         134.806         134.936         135.069         135.194         135.313         135.426         135.535         135.641         135.745    
          135.850         135.955         136.062         136.172         136.283         136.398         136.515         136.636         136.760         136.888    
          137.019         137.152         137.288         137.427         137.565         137.703         137.840         137.976         138.114         138.252    
          138.393         138.541         138.699         138.865         139.041         139.233         139.436         139.632         139.820         140.000    
          140.174         140.347         140.514         140.667         140.784         140.848         133.655         133.659         133.667         133.678    
          133.693         133.709         133.727         133.747         133.768         133.790         133.814         133.837         133.862         133.887    
          133.913         133.940         133.969         134.000         134.032         134.066         134.102         134.139         134.179         134.220    
          134.263         134.309         134.358         134.411         134.469         134.534         134.608         134.672         134.720         134.675    
          134.722         134.800         134.922         135.051         135.176         135.292         135.401         135.508         135.613         135.717    
          135.821         135.927         136.035         136.146         136.260         136.378         136.499         136.624         136.752         136.884    
          137.019         137.155         137.293         137.432         137.571         137.710         137.848         137.986         138.125         138.265    
          138.407         138.556         138.714         138.882         139.061         139.255         139.456         139.648         139.827         139.998    
          140.165         140.330         140.490         140.635         140.748         140.811         133.659         133.663         133.672         133.684    
          133.699         133.716         133.735         133.755         133.777         133.800         133.824         133.849         133.874         133.901    
          133.927         133.956         133.985         134.017         134.051         134.086         134.123         134.161         134.201         134.244    
          134.288         134.334         134.384         134.436         134.493         134.556         134.625         134.682         134.727         134.690    
          134.733         134.802         134.914         135.037         135.159         135.272         135.378         135.482         135.586         135.689    
          135.793         135.899         136.008         136.121         136.238         136.359         136.485         136.614         136.747         136.884    
          137.022         137.162         137.301         137.440         137.579         137.719         137.858         137.997         138.138         138.279    
          138.422         138.573         138.735         138.906         139.087         139.278         139.474         139.659         139.830         139.992    
          140.153         140.310         140.462         140.601         140.710         140.771         133.662         133.668         133.678         133.690    
          133.706         133.723         133.742         133.763         133.786         133.810         133.835         133.860         133.886         133.913    
          133.941         133.970         134.001         134.034         134.069         134.105         134.144         134.183         134.225         134.268    
          134.314         134.362         134.412         134.466         134.523         134.584         134.651         134.702         134.741         134.714    
          134.748         134.789         134.829         134.793         134.838         134.913         135.027         135.143         135.253         135.357    
          135.459         135.561         135.662         135.766         135.872         135.983         136.098         136.218         136.343         136.473    
          136.607         136.746         136.886         137.028         137.170         137.312         137.453         137.591         137.730         137.870    
          138.011         138.153         138.296         138.444         138.597         138.760         138.931         139.113         139.304         139.490    
          139.665         139.828         139.985         140.138         140.290         140.436         140.569         140.675         140.735         133.666    
          133.674         133.684         133.697         133.713         133.731         133.750         133.772         133.794         133.819         133.844    
          133.870         133.897         133.925         133.954         133.985         134.017         134.051         134.087         134.125         134.165    
          134.206         134.249         134.294         134.341         134.390         134.442         134.497         134.554         134.614         134.678    
          134.748         134.803         134.846         134.810         134.852         134.918         135.020         135.128         135.235         135.337    
          135.437         135.538         135.638         135.740         135.847         135.959         136.077         136.201         136.330         136.465    
          136.605         136.747         136.892         137.037         137.182         137.327         137.469         137.607         137.744         137.885    
          138.027         138.171         138.317         138.469         138.627         138.789         138.954         139.134         139.325         139.504    
          139.669         139.827         139.977         140.125         140.272         140.414         140.543         140.644         140.703         133.681    
          133.692         133.706         133.721         133.739         133.758         133.780         133.803         133.827         133.853         133.880    
          133.908         133.937         133.967         133.999         134.032         134.068         134.105         134.145         134.186         134.228    
          134.273         134.320         134.368         134.419         134.473         134.528         134.585         134.644         134.706         134.772    
          134.821         134.860         134.829         134.867         134.925         135.017         135.117         135.220         135.320         135.419    
          135.519         135.618         135.719         135.825         135.938         136.060         136.188         136.321         136.461         136.606    
          136.753         136.902         137.051         137.199         137.346         137.488         137.625         137.762         137.903         138.046    
          138.190         138.339         138.494         138.652         138.812         138.974         139.150         139.339         139.516         139.677    
          139.828         139.974         140.118         140.260         140.399         140.524         140.622         140.680         133.702         133.715    
          133.730         133.748         133.767         133.788         133.811         133.836         133.862         133.889         133.918         133.948    
          133.979         134.012         134.047         134.084         134.123         134.164         134.207         134.251         134.298         134.346    
          134.396         134.448         134.502         134.557         134.614         134.673         134.734         134.777         134.804         134.786    
          134.817         134.839         134.876         134.850         134.884         134.936         135.019         135.112         135.211         135.309    
          135.407         135.506         135.605         135.706         135.812         135.904         135.955         135.896         135.954         136.023    
          136.078         136.017         136.081         136.180         136.318         136.463         136.612         136.764         136.917         137.069    
          137.220         137.367         137.509         137.646         137.781         137.920         138.064         138.211         138.361         138.515    
          138.672         138.828         138.987         139.161         139.351         139.530         139.689         139.837         139.979         140.120    
          140.259         140.394         140.514         140.610         140.666         133.726         133.741         133.757         133.776         133.797    
          133.819         133.844         133.871         133.899         133.928         133.959         133.992         134.026         134.063         134.101    
          134.142         134.184         134.229         134.274         134.322         134.371         134.422         134.475         134.529         134.585    
          134.642         134.700         134.759         134.799         134.829         134.812         134.839         134.861         134.894         134.874    
          134.902         134.932         134.962         134.939         134.973         135.028         135.116         135.212         135.309         135.405    
          135.504         135.603         135.704         135.787         135.832         135.785         135.838         135.893         135.953         135.896    
          135.956         136.017         136.084         136.020         136.087         136.155         136.212         136.155         136.221         136.324    
          136.473         136.626         136.781         136.936         137.091         137.242         137.389         137.530         137.666         137.801    
          137.940         138.085         138.233         138.382         138.533         138.686         138.841         139.000         139.174         139.365    
          139.547         139.705         139.851         139.992         140.131         140.268         140.400         140.518         140.611         140.665    
          133.753         133.768         133.786         133.806         133.829         133.854         133.880         133.908         133.938         133.970    
          134.004         134.040         134.078         134.118         134.160         134.204         134.250         134.297         134.346         134.396    
          134.448         134.501         134.556         134.612         134.669         134.726         134.784         134.843         134.906         134.952    
          134.985         134.964         134.995         135.026         135.061         135.038         135.073         135.110         135.149         135.121    
          135.160         135.202         135.243         135.212         135.253         135.297         135.337         135.306         135.347         135.392    
          135.435         135.403         135.446         135.493         135.535         135.504         135.546         135.592         135.634         135.603    
          135.646         135.692         135.734         135.703         135.746         135.791         135.845         135.806         135.853         135.903    
          135.964         135.915         135.976         136.027         136.094         136.040         136.105         136.162         136.232         136.173    
          136.243         136.343         136.491         136.646         136.804         136.961         137.114         137.266         137.413         137.551    
          137.686         137.822         137.962         138.108         138.259         138.408         138.557         138.705         138.857         139.016    
          139.188         139.376         139.560         139.724         139.871         140.013         140.153         140.287         140.417         140.532    
          140.622         140.676         133.781         133.798         133.818         133.840         133.864         133.890         133.919         133.949    
          133.982         134.016         134.053         134.093         134.134         134.178         134.224         134.271         134.319         134.369    
          134.421         134.473         134.527         134.582         134.638         134.695         134.752         134.810         134.869         134.932    
          135.000         135.076         135.161         135.251         135.347         135.447         135.548         135.647         135.747         135.856    
          135.936         135.993         135.958         136.011         136.057         136.120         136.081         136.137         136.189         136.261    
          136.209         136.279         136.336         136.397         136.350         136.417         136.520         136.676         136.833         136.990    
          137.143         137.294         137.438         137.574         137.708         137.844         137.986         138.135         138.289         138.440    
          138.586         138.731         138.879         139.038         139.210         139.391         139.574         139.743         139.895         140.040    
          140.180         140.314         140.441         140.553         140.640         140.694         133.812         133.831         133.852         133.876    
          133.902         133.930         133.960         133.993         134.029         134.067         134.107         134.150         134.196         134.243    
          134.292         134.342         134.393         134.445         134.498         134.554         134.609         134.665         134.722         134.778    
          134.837         134.898         134.962         135.033         135.110         135.196         135.289         135.387         135.488         135.590    
          135.690         135.792         135.902         136.021         136.147         136.236         136.303         136.259         136.329         136.372    
          136.440         136.400         136.456         136.561         136.714         136.870         137.025         137.177         137.325         137.466    
          137.600         137.733         137.870         138.014         138.167         138.323         138.475         138.621         138.765         138.912    
          139.069         139.236         139.412         139.592         139.763         139.921         140.070         140.212         140.346         140.472    
          140.583         140.670         140.722         133.846         133.866         133.889         133.914         133.942         133.973         134.006    
          134.042         134.081         134.123         134.167         134.214         134.263         134.313         134.365         134.417         134.470    
          134.525         134.581         134.637         134.694         134.750         134.807         134.867         134.930         134.997         135.070    
          135.149         135.238         135.334         135.434         135.536         135.639         135.740         135.846         135.960         136.084    
          136.170         136.222         136.196         136.259         136.290         136.357         136.323         136.385         136.471         136.614    
          136.762         136.914         137.067         137.217         137.361         137.500         137.633         137.765         137.901         138.047    
          138.203         138.360         138.513         138.663         138.809         138.957         139.108         139.269         139.441         139.619    
          139.789         139.948         140.101         140.245         140.381         140.508         140.620         140.709         140.761         133.883    
          133.905         133.929         133.957         133.987         134.020         134.056         134.096         134.138         134.184         134.233    
          134.284         134.335         134.389         134.443         134.497         134.553         134.610         134.667         134.724         134.782    
          134.840         134.900         134.966         135.036         135.112         135.194         135.285         135.385         135.487         135.591    
          135.695         135.800         135.910         136.030         136.157         136.238         136.296         136.275         136.330         136.360    
          136.424         136.396         136.456         136.537         136.674         136.815         136.964         137.114         137.261         137.405    
          137.542         137.675         137.807         137.943         138.089         138.245         138.403         138.559         138.712         138.860    
          139.007         139.155         139.310         139.478         139.650         139.819         139.979         140.133         140.281         140.420    
          140.549         140.663         140.753         140.805         133.923         133.946         133.973         134.003         134.036         134.072    
          134.112         134.155         134.202         134.253         134.305         134.359         134.414         134.469         134.526         134.584    
          134.641         134.699         134.757         134.816         134.876         134.939         135.006         135.080         135.159         135.245    
          135.340         135.442         135.550         135.659         135.765         135.870         135.982         136.109         136.240         136.364    
          136.440         136.499         136.474         136.532         136.607         136.736         136.873         137.017         137.165         137.312    
          137.454         137.591         137.726         137.860         137.999         138.146         138.298         138.452         138.611         138.765    
          138.913         139.060         139.206         139.359         139.520         139.687         139.853         140.014         140.169         140.319    
          140.462         140.594         140.710         140.802         140.854         133.966         133.992         134.021         134.054         134.090    
          134.130         134.174         134.222         134.274         134.327         134.383         134.440         134.498         134.557         134.616    
          134.676         134.735         134.795         134.855         134.917         134.983         135.054         135.132         135.216         135.307    
          135.407         135.515         135.632         135.745         135.850         135.949         136.067         136.201         136.333         136.452    
          136.521         136.578         136.557         136.612         136.680         136.801         136.932         137.073         137.219         137.366    
          137.510         137.648         137.787         137.925         138.067         138.213         138.357         138.506         138.663         138.816    
          138.965         139.114         139.262         139.412         139.570         139.731         139.893         140.053         140.209         140.359    
          140.504         140.639         140.759         140.853         140.905         134.014         134.042         134.074         134.110         134.150    
          134.195         134.243         134.296         134.351         134.408         134.468         134.529         134.590         134.651         134.713    
          134.775         134.837         134.900         134.965         135.035         135.112         135.196         135.287         135.384         135.490    
          135.610         135.735         135.851         135.955         136.060         136.184         136.311         136.435         136.544         136.605    
          136.659         136.642         136.694         136.756         136.869         136.994         137.132         137.277         137.425         137.571    
          137.716         137.861         138.002         138.143         138.280         138.416         138.562         138.716         138.870         139.022    
          139.172         139.320         139.469         139.622         139.779         139.938         140.096         140.251         140.402         140.548    
          140.686         140.809         140.904         140.956         134.067         134.098         134.133         134.173         134.218         134.266    
          134.319         134.376         134.436         134.497         134.561         134.625         134.689         134.754         134.819         134.884    
          134.951         135.021         135.098         135.181         135.273         135.372         135.479         135.598         135.731         135.862    
          135.986         136.094         136.203         136.320         136.432         136.543         136.644         136.694         136.742         136.734    
          136.780         136.832         136.938         137.060         137.197         137.343         137.495         137.647         137.800         137.945    
          138.082         138.214         138.343         138.480         138.629         138.782         138.933         139.080         139.228         139.334    
          139.397         139.353         139.431         139.482         139.546         139.513         139.577         139.633         139.699         139.664    
          139.729         139.788         139.855         139.817         139.883         139.944         140.010         139.970         140.035         140.097    
          140.164         140.122         140.187         140.250         140.317         140.270         140.344         140.401         140.466         140.420    
          140.492         140.548         140.612         140.567         140.636         140.732         140.857         140.954         141.007         134.125    
          134.160         134.199         134.243         134.292         134.345         134.403         134.464         134.528         134.595         134.662    
          134.730         134.798         134.866         134.936         135.007         135.084         135.167         135.259         135.360         135.470    
          135.593         135.728         135.871         136.009         136.135         136.243         136.347         136.458         136.562         136.663    
          136.745         136.786         136.826         136.823         136.860         136.905         137.007         137.131         137.272         137.422    
          137.577         137.732         137.885         138.024         138.153         138.281         138.415         138.558         138.703         138.805    
          138.866         138.827         138.900         138.947         139.010         138.980         139.041         139.094         139.156         139.126    
          139.188         139.241         139.303         139.273         139.336         139.384         139.461         139.420         139.483         139.590    
          139.742         139.893         140.044         140.195         140.297         140.368         140.323         140.389         140.443         140.516    
          140.471         140.536         140.591         140.662         140.618         140.680         140.738         140.795         140.755         140.819    
          140.903         141.000         141.052         134.190         134.228         134.272         134.320         134.373         134.432         134.495    
          134.561         134.630         134.701         134.773         134.845         134.917         134.990         135.067         135.151         135.244    
          135.345         135.457         135.581         135.719         135.869         136.017         136.153         136.273         136.381         136.490    
          136.598         136.690         136.771         136.808         136.833         136.844         136.876         136.866         136.900         136.906    
          136.930         136.973         137.076         137.208         137.353         137.507         137.661         137.815         137.963         138.093    
          138.218         138.352         138.492         138.588         138.646         138.611         138.682         138.724         138.782         138.758    
          138.816         138.859         138.931         138.895         138.954         139.056         139.206         139.355         139.506         139.659    
          139.808         139.955         140.103         140.250         140.395         140.541         140.685         140.780         140.843         140.801    
          140.858         140.909         140.956         140.924         140.975         141.036         141.082         134.262         134.304         134.351    
          134.404         134.463         134.527         134.596         134.667         134.742         134.818         134.894         134.971         135.049    
          135.133         135.226         135.327         135.437         135.561         135.700         135.852         136.006         136.150         136.282    
          136.404         136.516         136.624         136.716         136.794         136.861         136.890         136.917         136.921         136.947    
          136.973         137.046         137.159         137.297         137.445         137.595         137.741         137.890         138.031         138.158    
          138.286         138.422         138.518         138.572         138.542         138.609         138.644         138.715         138.680         138.737    
          138.836         138.980         139.128         139.281         139.434         139.586         139.735         139.882         140.025         140.169    
          140.311         140.450         140.588         140.726         140.859         140.942         140.993         140.956         141.001         141.041    
          141.068         141.050         141.078         141.091         141.101         134.340         134.387         134.439         134.497         134.562    
          134.632         134.707         134.785         134.865         134.947         135.029         135.114         135.206         135.306         135.416    
          135.538         135.675         135.824         135.977         136.130         136.275         136.409         136.532         136.640         136.737    
          136.819         136.887         136.945         136.966         136.989         137.004         137.029         137.020         137.049         137.061    
          137.091         137.134         137.251         137.391         137.535         137.678         137.823         137.967         138.100         138.226    
          138.355         138.489         138.579         138.644         138.606         138.672         138.763         138.915         139.065         139.215    
          139.368         139.522         139.674         139.822         139.965         140.103         140.241         140.374         140.504         140.633    
          140.759         140.880         140.989         141.075         141.124         134.426         134.477         134.535         134.601         134.672    
          134.750         134.832         134.917         135.004         135.093         135.187         135.287         135.396         135.516         135.648    
          135.794         135.948         136.105         136.260         136.403         136.533         136.650         136.752         136.842         136.916    
          136.979         137.034         137.085         137.111         137.143         137.151         137.186         137.234         137.353         137.487    
          137.626         137.769         137.907         138.044         138.172         138.298         138.428         138.516         138.572         138.544    
          138.615         138.644         138.714         138.688         138.746         138.846         139.006         139.164         139.317         139.468    
          139.621         139.772         139.917         140.054         140.186         140.314         140.437         140.555         140.670         140.782    
          140.888         140.988         141.074         141.125         134.521         134.578         134.644         134.717         134.798         134.885    
          134.975         135.069         135.166         135.268         135.377         135.495         135.623         135.766         135.921         136.079    
          136.239         136.393         136.535         136.661         136.771         136.868         136.950         137.019         137.079         137.132    
          137.186         137.211         137.244         137.260         137.295         137.294         137.341         137.345         137.392         137.457    
          137.585         137.722         137.857         137.991         138.079         138.132         138.109         138.175         138.203         138.255    
          138.243         138.296         138.327         138.383         138.368         138.425         138.457         138.511         138.501         138.557    
          138.585         138.658         138.633         138.692         138.790         138.949         139.112         139.274         139.426         139.578    
          139.729         139.877         140.017         140.147         140.270         140.388         140.498         140.601         140.699         140.793    
          140.884         140.970         141.066         141.120         134.628         134.694         134.769         134.853         134.945         135.042    
          135.143         135.249         135.360         135.477         135.604         135.743         135.895         136.055         136.217         136.381    
          136.535         136.674         136.794         136.899         136.989         137.064         137.131         137.189         137.243         137.300    
          137.366         137.407         137.453         137.459         137.508         137.515         137.567         137.567         137.620         137.689    
          137.819         137.903         137.957         137.941         138.010         138.031         138.083         138.080         138.132         138.152    
          138.218         138.202         138.253         138.333         138.466         138.602         138.743         138.898         139.058         139.224    
          139.387         139.541         139.694         139.842         139.985         140.118         140.240         140.354         140.458         140.552    
          140.638         140.717         140.791         140.871         140.924         134.751         134.828         134.917         135.013         135.116    
          135.225         135.340         135.460         135.588         135.726         135.874         136.032         136.198         136.367         136.533    
          136.687         136.819         136.931         137.030         137.113         137.186         137.250         137.308         137.362         137.423    
          137.491         137.584         137.636         137.687         137.696         137.750         137.752         137.803         137.815         137.867    
          137.874         137.927         137.936         137.989         137.997         138.065         138.059         138.110         138.184         138.308    
          138.435         138.572         138.707         138.853         139.008         139.168         139.336         139.503         139.659         139.809    
          139.953         140.089         140.214         140.328         140.431         140.522         140.598         140.664         140.723         140.767    
          134.898         134.990         135.090         135.200         135.317         135.441         135.571         135.709         135.857         136.012    
          136.178         136.350         136.525         136.693         136.843         136.967         137.074         137.166         137.244         137.313    
          137.376         137.434         137.495         137.562         137.639         137.735         137.837         137.949         138.070         138.192    
          138.315         138.433         138.557         138.687         138.819         138.966         139.120         139.278         139.448         139.615    
          139.768         139.915         140.054         140.181         140.297         140.403         140.498         140.572         140.626         140.670    
          135.072         135.176         135.292         135.417         135.551         135.690         135.837         135.993         136.157         136.330    
          136.508         136.690         136.858         137.001         137.118         137.219         137.304         137.376         137.441         137.504    
          137.571         137.643         137.721         137.816         137.921         138.026         138.137         138.251         138.363         138.471    
          138.578         138.691         138.810         138.936         139.079         139.227         139.377         139.539         139.704         139.855    
          139.998         140.132         140.251         140.353         140.453         140.541         140.598         135.272         135.394         135.529    
          135.671         135.815         135.969         136.131         136.303         136.483         136.669         136.854         137.019         137.154    
          137.264         137.356         137.432         137.498         137.563         137.630         137.707         137.796         137.903         138.034    
          138.163         138.275         138.380         138.474         138.557         138.640         138.724         138.818         138.921         139.040    
          139.173         139.309         139.444         139.587         139.754         139.906         140.048         140.178         140.286         140.358    
          135.510         135.651         135.796         135.942         136.097         136.263         136.441         136.627         136.817         137.001    
          137.163         137.293         137.394         137.475         137.541         137.597         137.657         137.721         137.806         137.919    
          138.070         138.258         138.420         138.548         138.633         138.681         138.723         138.771         138.829         138.904    
          138.995         139.105         139.229         139.354         139.468         139.553         135.782         135.923         136.065         136.216    
          136.381         136.562         136.750         136.941         137.125         137.283         137.407         137.499         137.567         137.620    
          137.656         137.698         136.052         136.183         136.317         136.476         136.658         136.846         137.039         137.220    
          137.373         137.493         137.573         137.623         137.662         136.290         136.380         136.538         136.720         136.903    
          137.099         137.282         137.429         137.540         137.605    

 HEAD WILL BE SAVED ON UNIT 1020 AT END OF TIME STEP    1, STRESS PERIOD    2

 SFR PACKAGE (SFR) STAGES FOR EACH CONTROL VOLUME   PERIOD      2   STEP        1
 -------------------------------------------------------------------------------------------------------------
                                                                                      STREAMBED    STREAMBED  
   NUMBER   CELLID                  STAGE        DEPTH        WIDTH       GWF HEAD   CONDUCTANCE    GRADIENT  
 -------------------------------------------------------------------------------------------------------------
     1      (1,2565)              143.61       0.0000       0.0000       141.71       1016.1       1.0000     
     2      (1,2563)              143.50       0.0000       0.0000       141.48       319.68       1.0000     
     3      (1,2561)              143.45       0.0000       0.0000       141.47       615.17       1.0000     
     4      (1,2560)              143.45       0.0000       0.0000       141.34       955.58       1.0000     
     5      (1,2557)              143.45       0.0000       0.0000       141.21       490.75       1.0000     
     6      (1,2485)              143.45       0.0000       0.0000       141.18       478.66       1.0000     
     7      (1,2484)              143.42       0.0000       0.0000       141.08       1093.8       1.0000     
     8      (1,2481)              143.33       0.0000       0.0000       140.98       60.480       1.0000     
     9      (1,2479)              143.33       0.0000       0.0000       140.96       862.27       1.0000     
     10     (1,2478)              143.33       0.0000       0.0000       140.87       978.05       1.0000     
     11     (1,2399)              143.33       0.0000       0.0000       140.84       371.52       1.0000     
     12     (1,2396)              143.33       0.0000       0.0000       140.74       584.06       1.0000     
     13     (1,2394)              143.28       0.0000       0.0000       140.72       998.78       1.0000     
     14     (1,2393)              143.25       0.0000       0.0000       140.64       98.496       1.0000     
     15     (1,2304)              143.14       0.0000       0.0000       140.61       917.57       1.0000     
     16     (1,2301)              143.14       0.0000       0.0000       140.52       910.66       1.0000     
     17     (1,2300)              143.14       0.0000       0.0000       140.44       65.664       1.0000     
     18     (1,2389)              143.14       0.0000       0.0000       140.47       812.16       1.0000     
     19     (1,2386)              143.07       0.0000       0.0000       140.38       870.91       1.0000     
     20     (1,2385)              143.07       0.0000       0.0000       140.30       278.21       1.0000     
     21     (1,2296)              143.07       0.0000       0.0000       140.27       603.07       1.0000     
     22     (1,2293)              143.07       0.0000       0.0000       140.17       893.38       1.0000     
     23     (1,2292)              143.07       0.0000       0.0000       140.11       884.74       1.0000     
     24     (1,2289)              143.07       0.0000       0.0000       140.01       910.66       1.0000     
     25     (1,2288)              143.07       0.0000       0.0000       139.94       153.79       1.0000     
     26     (1,2286)              143.03       0.0000       0.0000       139.92       781.06       1.0000     
     27     (1,2283)              143.03       0.0000       0.0000       139.83       889.92       1.0000     
     28     (1,2282)              143.03       0.0000       0.0000       139.77       877.82       1.0000     
     29     (1,2279)              143.03       0.0000       0.0000       139.68       884.74       1.0000     
     30     (1,2278)              143.03       0.0000       0.0000       139.62       896.83       1.0000     
     31     (1,2275)              143.03       0.0000       0.0000       139.54       172.80       1.0000     
     32     (1,2277)              143.03       0.0000       0.0000       139.56       730.94       1.0000     
     33     (1,2276)              143.03       0.0000       0.0000       139.49       908.93       1.0000     
     34     (1,2273)              143.03       0.0000       0.0000       139.41       891.65       1.0000     
     35     (1,2272)              143.03       0.0000       0.0000       139.33       454.46       1.0000     
     36     (1,2376)              143.03       0.0000       0.0000       139.36       442.37       1.0000     
     37     (1,2373)              143.03       0.0000       0.0000       139.27       881.28       1.0000     
     38     (1,2372)              143.03       0.0000       0.0000       139.21       881.28       1.0000     
     39     (1,2369)              143.01       0.0000       0.0000       139.12       902.02       1.0000     
     40     (1,2368)              142.55       0.0000       0.0000       139.06       806.98       1.0000     
     41     (1,2370)              142.55       0.0000       0.0000       139.08       82.944       1.0000     
     42     (1,2367)              142.05       0.0000       0.0000       138.99       902.02       1.0000     
     43     (1,2366)              141.75       0.0000       0.0000       138.94       898.56       1.0000     
     44     (1,2363)              141.22       0.0000       0.0000       138.86       876.10       1.0000     
     45     (1,2362)              140.98       0.0000       0.0000       138.78       926.21       1.0000     
     46     (1,2462)              140.62       0.0000       0.0000       138.80       5.1840       1.0000     
     47     (1,2459)              140.43       0.0000       0.0000       138.72       1069.6       1.0000     
     48     (1,2458)              140.43       0.0000       0.0000       138.67       362.88       1.0000     
     49     (1,2460)              140.05       0.0000       0.0000       138.69       713.66       1.0000     
     50     (1,2457)              140.05       0.0000       0.0000       138.62       705.02       1.0000     
     51     (1,2538)              139.72       0.0000       0.0000       138.65       412.99       1.0000     
     52     (1,2537)              139.72       0.0000       0.0000       138.58       983.23       1.0000     
     53     (1,2539)              139.56       0.0000       0.0000       138.62       190.08       0.94409    
     54     (1,2536)              139.54       0.0000       0.0000       138.55       886.46       0.98853    
     55     (1,2614)              139.39       0.0000       0.0000       138.58       635.90       0.80727    
     56     (1,2613)              139.36       0.0000       0.0000       138.52       435.46       0.84429    
     57     (1,2615)              139.20       0.0000       0.0000       138.54       955.58       0.65809    
     58     (1,2682)              139.02       0.0000       0.0000       138.58       884.74       0.44250    
     59     (1,2684)              138.96       0.0000       0.0000       138.61       539.14       0.34584    
     60     (1,2681)              138.89       0.0000       0.0000       138.55       447.55       0.34377    
     61     (1,2762)              138.89       0.0000       0.0000       138.58       857.09       0.30904    
     62     (1,2761)              138.84       0.0000       0.0000       138.51       364.61       0.32503    
     63     (1,2763)              138.84       0.0000       0.0000       138.55       627.26       0.28775    
     64     (1,2760)              138.65       0.0000       0.0000       138.48       978.05       0.17188    
     65     (1,2759)              138.58       0.0000       0.0000       138.42       883.01       0.15629    
     66     (1,2756)              138.49       0.0000       0.0000       138.35       903.74       0.13925    
     67     (1,2755)              138.33       0.0000       0.0000       138.30       896.83       3.35905E-02
     68     (1,2752)              138.33       0.0000       0.0000       138.23       910.66       0.10197    
     69     (1,2751)              138.33       0.0000       0.0000       138.17       926.21       0.15642    
     70     (1,2748)              138.33       0.0000       0.0000       138.11       38.016       0.22090    
     71     (1,2831)              138.33       0.0000       0.0000       138.14       926.21       0.18516    
     72     (1,2830)              138.33       0.0000       0.0000       138.08       927.94       0.25182    
     73     (1,2827)              138.33       0.0000       0.0000       138.01       336.96       0.32122    
     74     (1,2829)              138.33       0.0000       0.0000       138.05       585.79       0.27800    
     75     (1,2828)              138.33       0.0000       0.0000       138.00       910.66       0.33085    
     76     (1,2825)              138.33       0.0000       0.0000       137.93       910.66       0.39541    
     77     (1,2824)              138.33       0.0000       0.0000       137.87       321.41       0.46024    
     78     (1,2895)              138.33       0.0000       0.0000       137.92       589.25       0.40857    
     79     (1,2892)              138.33       0.0000       0.0000       137.85       900.29       0.48272    
     80     (1,2891)              138.33       0.0000       0.0000       137.80       927.94       0.52782    
     81     (1,2888)              138.33       0.0000       0.0000       137.73       872.64       0.59751    
     82     (1,2887)              138.33       0.0000       0.0000       137.69       1164.7       0.64106    
     83     (1,2884)              138.33       0.0000       0.0000       137.64       190.08       0.69473    
     84     (1,2819)              138.33       0.0000       0.0000       137.58       1031.6       0.75069    
     85     (1,2818)              138.24       0.0000       0.0000       137.53       190.08       0.70676    
     86     (1,2816)              138.24       0.0000       0.0000       137.49       1031.6       0.75024    
     87     (1,2813)              137.98       0.0000       0.0000       137.42       190.08       0.55512    
     88     (1,2739)              137.98       0.0000       0.0000       137.37       1031.6       0.61277    
     89     (1,2738)              137.56       0.0000       0.0000       137.32       190.08       0.23759    
     90     (1,2736)              137.56       0.0000       0.0000       137.27       1031.6       0.28909    
     91     (1,2733)              137.21       0.0000       0.0000       137.21       190.08       2.47991E-04
     92     (1,2667)              137.21       0.0000       0.0000       137.14       1031.6       6.77373E-02
     93     (1,2666)              137.20       0.0000       0.0000       137.09       190.08       0.11063    
     94     (1,2664)              137.11       0.0000       0.0000       137.02       1099.0       8.54835E-02
     95     (1,2600)              136.90       1.79822E-03  2.0000       136.92       421.63      -2.29750E-02
     96     (1,2597)              136.64       7.97721E-03  2.0000       136.79       644.54      -0.14995    
     97     (1,2595)              136.64       1.41592E-02  2.0000       136.74       981.50      -9.09056E-02
     98     (1,2520)              136.65       1.71938E-02  2.0000       136.74       297.22      -8.79535E-02
     99     (1,2519)              136.65       1.87779E-02  2.0000       136.70       803.52      -4.96291E-02
    100     (1,2517)              136.65       2.03753E-02  2.0000       136.68       983.23      -3.10875E-02
    101     (1,2436)              136.65       2.12999E-02  2.0000       136.66       1054.1      -1.13319E-02
    102     (1,2434)              136.65       2.14726E-02  2.0000       136.65       632.45       6.11305E-03
    103     (1,2435)              136.65       2.16818E-02  2.0000       136.66       1263.2      -1.08526E-02
    104     (1,2438)              136.65       2.23692E-02  2.0000       136.71       336.96      -5.66441E-02
    105     (1,2344)              136.65       2.30115E-02  2.0000       136.67       910.66      -1.33608E-02
    106     (1,2342)              136.65       2.30735E-02  2.0000       136.64       615.17       1.48228E-02
    107     (1,2343)              136.65       2.31341E-02  2.0000       136.68       457.92      -2.64376E-02
    108     (1,2251)              136.62       2.32598E-02  2.0000       136.62       1016.1       5.80681E-03
    109     (1,2249)              136.51       2.36407E-02  2.0000       136.54       864.00      -2.87593E-02
    110     (1,2183)              136.39       2.52751E-02  2.0000       136.45       934.85      -6.28534E-02
    111     (1,2181)              136.33       2.75210E-02  2.0000       136.40       864.00      -7.19110E-02
    112     (1,2114)              136.33       2.92543E-02  2.0000       136.37       872.64      -4.10199E-02
    113     (1,2112)              136.33       3.02454E-02  2.0000       136.36       867.46      -2.53384E-02
    114     (1,2044)              136.33       3.06196E-02  2.0000       136.33       430.27      -3.88788E-04
    115     (1,2043)              136.33       3.02674E-02  2.0000       136.29       546.05       3.84885E-02
    116     (1,2041)              136.31       2.91292E-02  2.0000       136.26       1021.2       4.43170E-02
    117     (1,1972)              136.31       2.80127E-02  2.0000       136.19       148.61       0.12174    
    118     (1,1969)              136.08       2.80826E-02  2.0000       136.10       943.49      -2.33255E-02
    119     (1,1967)              136.08       2.82356E-02  2.0000       136.05       508.03       2.63875E-02
    120     (1,1966)              136.01       2.79580E-02  2.0000       136.00       565.06       3.84604E-03
    121     (1,1893)              135.93       2.79303E-02  2.0000       135.93       855.36      -7.28781E-04
    122     (1,1894)              135.93       2.81051E-02  2.0000       135.97       200.45      -4.57523E-02
    123     (1,1892)              135.93       2.79225E-02  2.0000       135.91       888.19       2.18402E-02
    124     (1,1895)              135.92       2.78751E-02  2.0000       135.94       888.19      -1.88587E-02
    125     (1,1896)              135.92       2.90184E-02  2.0000       135.98       739.58      -6.48101E-02
    126     (1,1819)              135.92       2.97864E-02  2.0000       135.90       205.63       1.70579E-02
    127     (1,1822)              135.91       3.04290E-02  2.0000       135.96       924.48      -4.46342E-02
    128     (1,1820)              135.67       3.34357E-02  2.0000       135.83       907.20      -0.15704    
    129     (1,1745)              135.68       3.75965E-02  2.0000       135.79       1152.6      -0.11319    
    130     (1,1742)              135.60       4.09009E-02  2.0000       135.71       888.19      -0.11398    
    131     (1,1741)              135.60       4.31428E-02  2.0000       135.67       926.21      -6.83268E-02
    132     (1,1738)              135.52       4.51800E-02  2.0000       135.62       910.66      -0.10020    
    133     (1,1737)              135.52       4.68422E-02  2.0000       135.61       433.73      -8.83715E-02
    134     (1,1735)              135.49       4.79643E-02  2.0000       135.55       860.54      -5.91538E-02
    135     (1,1732)              135.49       4.87243E-02  2.0000       135.53       229.82      -4.49812E-02
    136     (1,1653)              135.43       4.93997E-02  2.0000       135.47       993.60      -4.49059E-02
    137     (1,1651)              135.41       5.03991E-02  2.0000       135.45       1054.1      -3.56913E-02
    138     (1,1654)              135.41       5.14406E-02  2.0000       135.47       870.91      -5.65569E-02
    139     (1,1655)              135.37       5.33448E-02  2.0000       135.49       974.59      -0.11556    
    140     (1,1658)              135.38       5.52747E-02  2.0000       135.58       273.02      -0.20296    
    141     (1,1548)              135.38       5.74909E-02  2.0000       135.54       903.74      -0.15761    
    142     (1,1546)              135.38       6.02163E-02  2.0000       135.57       571.97      -0.18870    
    143     (1,1543)              135.38       6.22783E-02  2.0000       135.50       746.50      -0.11600    
    144     (1,1453)              135.38       6.38046E-02  2.0000       135.56       342.14      -0.17591    
    145     (1,1452)              135.39       6.54202E-02  2.0000       135.49       914.11      -0.10695    
    146     (1,1449)              135.39       6.71434E-02  2.0000       135.47       914.11      -8.05055E-02
    147     (1,1448)              135.39       6.81112E-02  2.0000       135.47       302.40      -7.92001E-02
    148     (1,1538)              135.35       6.88307E-02  2.0000       135.42       668.74      -7.35192E-02
    149     (1,1535)              135.35       6.97923E-02  2.0000       135.40       969.41      -5.09061E-02
    150     (1,1537)              135.33       7.07547E-02  2.0000       135.38       955.58      -5.24909E-02
    151     (1,1647)              135.33       7.16822E-02  2.0000       135.38       910.66      -5.11643E-02
    152     (1,1649)              135.33       7.27266E-02  2.0000       135.40       931.39      -6.80275E-02
    153     (1,1648)              135.33       7.37200E-02  2.0000       135.38       896.83      -4.70565E-02
    154     (1,1645)              135.28       7.45971E-02  2.0000       135.34       940.03      -5.51066E-02
    155     (1,1644)              135.21       7.56587E-02  2.0000       135.30       648.00      -9.71554E-02
    156     (1,1642)              135.14       7.68141E-02  2.0000       135.29       421.63      -0.14983    
    157     (1,1639)              135.14       7.82683E-02  2.0000       135.24       933.12      -0.10436    
    158     (1,1638)              135.14       7.95151E-02  2.0000       135.24       400.90      -0.10445    
    159     (1,1640)              135.14       8.04377E-02  2.0000       135.25       587.52      -0.10571    
    160     (1,1637)              135.14       8.16091E-02  2.0000       135.22       910.66      -7.80310E-02
    161     (1,1636)              135.14       8.27505E-02  2.0000       135.21       872.64      -6.86897E-02
    162     (1,1633)              135.14       8.36749E-02  2.0000       135.20       865.73      -5.43314E-02
    163     (1,1632)              135.13       8.44683E-02  2.0000       135.19       870.91      -5.21341E-02
    164     (1,1629)              135.14       8.51195E-02  2.0000       135.17       874.37      -3.53551E-02
    165     (1,1628)              135.14       8.55396E-02  2.0000       135.16       865.73      -2.13969E-02
    166     (1,1625)              135.09       8.59514E-02  2.0000       135.12       870.91      -3.45516E-02
    167     (1,1624)              135.06       8.64992E-02  2.0000       135.10       879.55      -3.95956E-02
    168     (1,1621)              135.06       8.69412E-02  2.0000       135.08       881.28      -2.01423E-02
    169     (1,1620)              135.06       8.71497E-02  2.0000       135.07       900.29      -7.89594E-03
    170     (1,1617)              135.06       8.71491E-02  2.0000       135.04       487.30       1.47385E-02
    171     (1,1615)              134.99       8.72131E-02  2.0000       135.02       461.38      -3.21221E-02
    172     (1,1614)              134.99       8.74186E-02  2.0000       135.00       946.94      -1.02834E-02
    173     (1,1611)              134.99       8.74305E-02  2.0000       134.97       589.25       1.41077E-02
    174     (1,1525)              134.98       8.72842E-02  2.0000       134.95       406.08       2.25850E-02
    175     (1,1524)              134.86       8.75023E-02  2.0000       134.89       965.95      -3.64860E-02
    176     (1,1521)              134.86       8.78664E-02  2.0000       134.87       577.15      -1.45463E-02
    177     (1,1519)              134.86       8.79828E-02  2.0000       134.87       428.54      -1.30109E-02
    178     (1,1518)              134.86       8.79948E-02  2.0000       134.85       905.47       4.56161E-03
    179     (1,1515)              134.86       8.78562E-02  2.0000       134.83       539.14       2.32179E-02
    180     (1,1431)              134.86       8.75506E-02  2.0000       134.83       864.00       2.79008E-02
    181     (1,1429)              134.86       8.70610E-02  2.0000       134.81       774.14       4.44360E-02
    182     (1,1432)              134.82       8.68091E-02  2.0000       134.83       502.85      -8.73470E-03
    183     (1,1353)              134.81       8.68216E-02  2.0000       134.80       907.20       3.20437E-03
    184     (1,1351)              134.81       8.66941E-02  2.0000       134.79       883.01       1.38843E-02
    185     (1,1274)              134.81       8.63030E-02  2.0000       134.77       902.02       3.78996E-02
    186     (1,1272)              134.80       8.54846E-02  2.0000       134.73       900.29       6.94814E-02
    187     (1,1194)              134.47       8.57331E-02  2.0000       134.56       927.94      -9.89942E-02
    188     (1,1192)              134.36       8.74935E-02  2.0000       134.49       853.63      -0.13750    
    189     (1,1189)              134.36       8.85912E-02  2.0000       134.48       122.69      -0.11843    
    190     (1,1111)              134.26       8.97498E-02  2.0000       134.39       991.87      -0.12691    
    191     (1,1109)              134.26       9.14386E-02  2.0000       134.39       628.99      -0.12871    
    192     (1,1108)              134.26       9.24095E-02  2.0000       134.37       361.15      -0.10830    
    193     (1,1030)              134.26       9.33374E-02  2.0000       134.34       979.78      -7.79954E-02
    194     (1,1028)              134.26       9.45400E-02  2.0000       134.35       889.92      -8.36875E-02
    195     (1,950)               134.27       9.52951E-02  2.0000       134.38       186.62      -0.11208    
    196     (1,947)               134.17       9.62072E-02  2.0000       134.28       813.89      -0.11672    
    197     (1,945)               134.17       9.75196E-02  2.0000       134.30       546.05      -0.13382    
    198     (1,944)               134.17       9.86752E-02  2.0000       134.26       848.45      -8.97579E-02
    199     (1,866)               134.17       9.95890E-02  2.0000       134.29       354.24      -0.12051    
    200     (1,863)               134.17       0.10038      2.0000       134.25       803.52      -7.60090E-02
    201     (1,861)               134.17       0.10127      2.0000       134.26       608.26      -9.18825E-02
    202     (1,860)               134.17       0.10196      2.0000       134.24       521.86      -6.78825E-02
    203     (1,782)               134.17       0.10267      2.0000       134.24       822.53      -7.12162E-02
    204     (1,779)               134.16       0.10324      2.0000       134.23       252.29      -6.77115E-02
    205     (1,777)               134.16       0.10388      2.0000       134.23       1130.1      -6.11278E-02
    206     (1,700)               134.16       0.10440      2.0000       134.26       12.096      -9.82471E-02
    207     (1,699)               134.16       0.10479      2.0000       134.21       1138.8      -4.50289E-02
    208     (1,697)               134.17       0.10526      2.0000       134.23       169.34      -6.95247E-02
    209     (1,694)               134.17       0.10551      2.0000       134.19       927.94      -2.44051E-02
    210     (1,618)               134.10       0.10598      2.0000       134.18       483.84      -8.47593E-02
    211     (1,617)               134.10       0.10650      2.0000       134.15       578.88      -5.14294E-02
    212     (1,615)               134.10       0.10702      2.0000       134.15       855.36      -4.82434E-02
    213     (1,612)               134.10       0.10739      2.0000       134.12       361.15      -2.54548E-02
    214     (1,537)               134.10       0.10750      2.0000       134.10       936.58      -6.80850E-03
    215     (1,535)               133.93       0.10815      2.0000       134.06       627.26      -0.13189    
    216     (1,534)               133.93       0.10943      2.0000       134.03       976.32      -9.59683E-02
    217     (1,531)               133.93       0.11011      2.0000       134.03       15.552      -0.10465    
    218     (1,457)               133.93       0.11065      2.0000       134.00       1042.0      -7.00456E-02
    219     (1,455)               133.93       0.11167      2.0000       134.00       1024.7      -6.86126E-02
    220     (1,382)               133.93       0.11245      2.0000       134.04       388.80      -0.10284    
    221     (1,381)               133.93       0.11314      2.0000       134.00       927.94      -6.33832E-02
    222     (1,378)               133.93       0.11385      2.0000       133.98       889.92      -4.71771E-02
    223     (1,377)               133.93       0.11440      2.0000       133.97       919.30      -3.97001E-02
    224     (1,375)               133.93       0.11473      2.0000       134.00       160.70      -6.12818E-02
    225     (1,372)               133.94       0.11505      2.0000       133.97       1038.5      -3.52361E-02
    226     (1,371)               133.94       0.11537      2.0000       133.97       326.59      -3.00246E-02
    227     (1,299)               133.94       0.11560      2.0000       133.97       701.57      -3.36820E-02
    228     (1,296)               133.94       0.11588      2.0000       133.95       907.20      -1.76346E-02
    229     (1,294)               133.94       0.11601      2.0000       133.97       119.23      -2.91573E-02
    230     (1,293)               133.94       0.11612      2.0000       133.95       921.02      -1.22720E-02
    231     (1,290)               133.94       0.11618      2.0000       133.93       884.74       2.94987E-03
    232     (1,289)               133.94       0.11607      2.0000       133.92       908.93       1.44630E-02
    233     (1,286)               133.94       0.11594      2.0000       133.89       114.05       4.29837E-02
    234     (1,250)               133.94       0.11568      2.0000       133.89       789.70       4.14330E-02
    235     (1,249)               133.93       0.11494      2.0000       133.86       979.78       7.51883E-02
    236     (1,246)               133.70       0.11454      2.0000       133.75       387.07      -4.14026E-02
    237     (1,244)               133.62       0.11493      2.0000       133.69       644.54      -6.21699E-02
    238     (1,243)               133.40       0.11621      2.0000       133.58       786.24      -0.18280    
    239     (1,209)               133.40       0.11769      2.0000       133.58       402.62      -0.17750    
    240     (1,206)               133.40       0.11887      2.0000       133.52       819.07      -0.12357    
    241     (1,204)               133.40       0.11993      2.0000       133.54       402.62      -0.13753    
    242     (1,203)               133.40       0.12088      2.0000       133.50       819.07      -0.10344    
    243     (1,171)               133.40       0.12178      2.0000       133.52       399.17      -0.12293    
    244     (1,168)               133.40       0.12270      2.0000       133.49       1017.8      -8.69358E-02
    245     (1,166)               133.40       0.12334      2.0000       133.53       57.024      -0.13000    
    246     (1,165)               133.40       0.12400      2.0000       133.48       1164.7      -7.97409E-02
    247     (1,135)               133.40       0.12466      2.0000       133.53       57.024      -0.12804    
    248     (1,132)               133.41       0.12528      2.0000       133.48       1164.7      -7.39178E-02
    249     (1,130)               133.41       0.12589      2.0000       133.53       57.024      -0.11933    
    250     (1,129)               133.41       0.12647      2.0000       133.48       1164.7      -7.03144E-02
    251     (1,101)               133.41       0.12705      2.0000       133.52       57.024      -0.11769    
    252     (1,98)                133.41       0.12760      2.0000       133.48       1164.7      -6.74487E-02
    253     (1,96)                133.41       0.12816      2.0000       133.52       57.024      -0.11170    
    254     (1,95)                133.41       0.12869      2.0000       133.47       1164.7      -6.48541E-02
    255     (1,69)                133.41       0.12921      2.0000       133.52       57.024      -0.11183    
    256     (1,66)                133.41       0.12972      2.0000       133.47       1178.5      -6.11139E-02
    257     (1,65)                133.41       0.13020      2.0000       133.49       48.384      -7.69584E-02
    258     (1,63)                133.40       0.13066      2.0000       133.46       1061.0      -6.39428E-02
    259     (1,60)                133.40       0.13121      2.0000       133.46       288.58      -6.09352E-02
    260     (1,36)                133.28       0.13209      2.0000       133.41       934.85      -0.12951    
    261     (1,35)                133.28       0.13318      2.0000       133.43       357.70      -0.14434    
    262     (1,33)                133.28       0.13413      2.0000       133.42       708.48      -0.13875    
    263     (1,30)                133.29       0.13533      2.0000       133.43       634.18      -0.14785    
    264     (1,8)                 133.29       0.13660      2.0000       133.47       589.25      -0.18743    
    265     (1,7)                 133.29       0.13810      2.0000       133.50       634.18      -0.20699    
    266     (1,5)                 133.29       0.13905      2.0000       133.62       69.120      -0.32940    
 -------------------------------------------------------------------------------------------------------------




  SFR BUDGET FOR ENTIRE MODEL AT END OF TIME STEP    1, STRESS PERIOD   2
  ------------------------------------------------------------------------------

     CUMULATIVE SFR      L**3       RATES FOR THIS TIME STEP      L**3/T
     ------------------                 ------------------------

           IN:                                      IN:
           ---                                      ---
                 GWF =      229015.0103                   GWF =        7289.5986
            RAINFALL =           0.0000              RAINFALL =           0.0000
         EVAPORATION =           0.0000           EVAPORATION =           0.0000
              RUNOFF =           0.0000                RUNOFF =           0.0000
          EXT-INFLOW =           0.0000            EXT-INFLOW =           0.0000
         EXT-OUTFLOW =           0.0000           EXT-OUTFLOW =           0.0000
             STORAGE =           0.0000               STORAGE =           0.0000

            TOTAL IN =      229015.0103              TOTAL IN =        7289.5986

          OUT:                                     OUT:
          ----                                     ----
                 GWF =       15095.9613                   GWF =         480.5089
            RAINFALL =           0.0000              RAINFALL =           0.0000
         EVAPORATION =           0.0000           EVAPORATION =           0.0000
              RUNOFF =           0.0000                RUNOFF =           0.0000
          EXT-INFLOW =           0.0000            EXT-INFLOW =           0.0000
         EXT-OUTFLOW =      213919.0490           EXT-OUTFLOW =        6809.0897
             STORAGE =           0.0000               STORAGE =           0.0000

           TOTAL OUT =      229015.0103             TOTAL OUT =        7289.5986

            IN - OUT =       2.9104E-11              IN - OUT =       9.0949E-13

 PERCENT DISCREPANCY =          -0.00     PERCENT DISCREPANCY =          -0.00




         TIME SUMMARY AT END OF TIME STEP    1 IN STRESS PERIOD    2
                    SECONDS     MINUTES      HOURS       DAYS        YEARS
                    -----------------------------------------------------------
   TIME STEP LENGTH 2.62800E+06  43800.      730.00      30.417     8.32763E-02
 STRESS PERIOD TIME 2.62800E+06  43800.      730.00      30.417     8.32763E-02
         TOTAL TIME 2.71440E+06  45240.      754.00      31.417     8.60141E-02


end timestep


start timestep kper="2" kstp="2" mode="normal"

 UBDSV1 SAVING           STO-SS ON UNIT   1019 AT TIME STEP      2, STRESS PERIOD      2
 UBDSV1 SAVING           STO-SY ON UNIT   1019 AT TIME STEP      2, STRESS PERIOD      2
 UBDSV1 SAVING     FLOW-JA-FACE ON UNIT   1019 AT TIME STEP      2, STRESS PERIOD      2
 UBDSV06 SAVING              GHB IN MODEL EXPERIMENTAL     PACKAGE EXPERIMENTAL    CONNECTED TO MODEL EXPERIMENTAL     PACKAGE GHB              ON UNIT   1019 AT TIME STEP      2, STRESS PERIOD      2
 UBDSV06 SAVING              RCH IN MODEL EXPERIMENTAL     PACKAGE EXPERIMENTAL    CONNECTED TO MODEL EXPERIMENTAL     PACKAGE RCH              ON UNIT   1019 AT TIME STEP      2, STRESS PERIOD      2
 UBDSV06 SAVING              SFR IN MODEL EXPERIMENTAL     PACKAGE EXPERIMENTAL    CONNECTED TO MODEL EXPERIMENTAL     PACKAGE SFR              ON UNIT   1019 AT TIME STEP      2, STRESS PERIOD      2
 UBDSV06 SAVING     FLOW-JA-FACE IN MODEL EXPERIMENTAL     PACKAGE SFR             CONNECTED TO MODEL EXPERIMENTAL     PACKAGE SFR              ON UNIT   1015 AT TIME STEP      2, STRESS PERIOD      2
 UBDSV06 SAVING              GWF IN MODEL EXPERIMENTAL     PACKAGE SFR             CONNECTED TO MODEL EXPERIMENTAL     PACKAGE EXPERIMENTAL     ON UNIT   1015 AT TIME STEP      2, STRESS PERIOD      2
 UBDSV06 SAVING         RAINFALL IN MODEL EXPERIMENTAL     PACKAGE SFR             CONNECTED TO MODEL EXPERIMENTAL     PACKAGE SFR              ON UNIT   1015 AT TIME STEP      2, STRESS PERIOD      2
 UBDSV06 SAVING      EVAPORATION IN MODEL EXPERIMENTAL     PACKAGE SFR             CONNECTED TO MODEL EXPERIMENTAL     PACKAGE SFR              ON UNIT   1015 AT TIME STEP      2, STRESS PERIOD      2
 UBDSV06 SAVING           RUNOFF IN MODEL EXPERIMENTAL     PACKAGE SFR             CONNECTED TO MODEL EXPERIMENTAL     PACKAGE SFR              ON UNIT   1015 AT TIME STEP      2, STRESS PERIOD      2
 UBDSV06 SAVING       EXT-INFLOW IN MODEL EXPERIMENTAL     PACKAGE SFR             CONNECTED TO MODEL EXPERIMENTAL     PACKAGE SFR              ON UNIT   1015 AT TIME STEP      2, STRESS PERIOD      2
 UBDSV06 SAVING      EXT-OUTFLOW IN MODEL EXPERIMENTAL     PACKAGE SFR             CONNECTED TO MODEL EXPERIMENTAL     PACKAGE SFR              ON UNIT   1015 AT TIME STEP      2, STRESS PERIOD      2
 UBDSV06 SAVING          STORAGE IN MODEL EXPERIMENTAL     PACKAGE SFR             CONNECTED TO MODEL EXPERIMENTAL     PACKAGE SFR              ON UNIT   1015 AT TIME STEP      2, STRESS PERIOD      2

 HEAD WILL BE SAVED ON UNIT 1020 AT END OF TIME STEP    2, STRESS PERIOD    2

end timestep


start timestep kper="2" kstp="3" mode="normal"

 UBDSV1 SAVING           STO-SS ON UNIT   1019 AT TIME STEP      3, STRESS PERIOD      2
 UBDSV1 SAVING           STO-SY ON UNIT   1019 AT TIME STEP      3, STRESS PERIOD      2
 UBDSV1 SAVING     FLOW-JA-FACE ON UNIT   1019 AT TIME STEP      3, STRESS PERIOD      2
 UBDSV06 SAVING              GHB IN MODEL EXPERIMENTAL     PACKAGE EXPERIMENTAL    CONNECTED TO MODEL EXPERIMENTAL     PACKAGE GHB              ON UNIT   1019 AT TIME STEP      3, STRESS PERIOD      2
 UBDSV06 SAVING              RCH IN MODEL EXPERIMENTAL     PACKAGE EXPERIMENTAL    CONNECTED TO MODEL EXPERIMENTAL     PACKAGE RCH              ON UNIT   1019 AT TIME STEP      3, STRESS PERIOD      2
 UBDSV06 SAVING              SFR IN MODEL EXPERIMENTAL     PACKAGE EXPERIMENTAL    CONNECTED TO MODEL EXPERIMENTAL     PACKAGE SFR              ON UNIT   1019 AT TIME STEP      3, STRESS PERIOD      2
 UBDSV06 SAVING     FLOW-JA-FACE IN MODEL EXPERIMENTAL     PACKAGE SFR             CONNECTED TO MODEL EXPERIMENTAL     PACKAGE SFR              ON UNIT   1015 AT TIME STEP      3, STRESS PERIOD      2
 UBDSV06 SAVING              GWF IN MODEL EXPERIMENTAL     PACKAGE SFR             CONNECTED TO MODEL EXPERIMENTAL     PACKAGE EXPERIMENTAL     ON UNIT   1015 AT TIME STEP      3, STRESS PERIOD      2
 UBDSV06 SAVING         RAINFALL IN MODEL EXPERIMENTAL     PACKAGE SFR             CONNECTED TO MODEL EXPERIMENTAL     PACKAGE SFR              ON UNIT   1015 AT TIME STEP      3, STRESS PERIOD      2
 UBDSV06 SAVING      EVAPORATION IN MODEL EXPERIMENTAL     PACKAGE SFR             CONNECTED TO MODEL EXPERIMENTAL     PACKAGE SFR              ON UNIT   1015 AT TIME STEP      3, STRESS PERIOD      2
 UBDSV06 SAVING           RUNOFF IN MODEL EXPERIMENTAL     PACKAGE SFR             CONNECTED TO MODEL EXPERIMENTAL     PACKAGE SFR              ON UNIT   1015 AT TIME STEP      3, STRESS PERIOD      2
 UBDSV06 SAVING       EXT-INFLOW IN MODEL EXPERIMENTAL     PACKAGE SFR             CONNECTED TO MODEL EXPERIMENTAL     PACKAGE SFR              ON UNIT   1015 AT TIME STEP      3, STRESS PERIOD      2
 UBDSV06 SAVING      EXT-OUTFLOW IN MODEL EXPERIMENTAL     PACKAGE SFR             CONNECTED TO MODEL EXPERIMENTAL     PACKAGE SFR              ON UNIT   1015 AT TIME STEP      3, STRESS PERIOD      2
 UBDSV06 SAVING          STORAGE IN MODEL EXPERIMENTAL     PACKAGE SFR             CONNECTED TO MODEL EXPERIMENTAL     PACKAGE SFR              ON UNIT   1015 AT TIME STEP      3, STRESS PERIOD      2

 HEAD WILL BE SAVED ON UNIT 1020 AT END OF TIME STEP    3, STRESS PERIOD    2

end timestep


start timestep kper="2" kstp="4" mode="normal"

 UBDSV1 SAVING           STO-SS ON UNIT   1019 AT TIME STEP      4, STRESS PERIOD      2
 UBDSV1 SAVING           STO-SY ON UNIT   1019 AT TIME STEP      4, STRESS PERIOD      2
 UBDSV1 SAVING     FLOW-JA-FACE ON UNIT   1019 AT TIME STEP      4, STRESS PERIOD      2
 UBDSV06 SAVING              GHB IN MODEL EXPERIMENTAL     PACKAGE EXPERIMENTAL    CONNECTED TO MODEL EXPERIMENTAL     PACKAGE GHB              ON UNIT   1019 AT TIME STEP      4, STRESS PERIOD      2
 UBDSV06 SAVING              RCH IN MODEL EXPERIMENTAL     PACKAGE EXPERIMENTAL    CONNECTED TO MODEL EXPERIMENTAL     PACKAGE RCH              ON UNIT   1019 AT TIME STEP      4, STRESS PERIOD      2
 UBDSV06 SAVING              SFR IN MODEL EXPERIMENTAL     PACKAGE EXPERIMENTAL    CONNECTED TO MODEL EXPERIMENTAL     PACKAGE SFR              ON UNIT   1019 AT TIME STEP      4, STRESS PERIOD      2
 UBDSV06 SAVING     FLOW-JA-FACE IN MODEL EXPERIMENTAL     PACKAGE SFR             CONNECTED TO MODEL EXPERIMENTAL     PACKAGE SFR              ON UNIT   1015 AT TIME STEP      4, STRESS PERIOD      2
 UBDSV06 SAVING              GWF IN MODEL EXPERIMENTAL     PACKAGE SFR             CONNECTED TO MODEL EXPERIMENTAL     PACKAGE EXPERIMENTAL     ON UNIT   1015 AT TIME STEP      4, STRESS PERIOD      2
 UBDSV06 SAVING         RAINFALL IN MODEL EXPERIMENTAL     PACKAGE SFR             CONNECTED TO MODEL EXPERIMENTAL     PACKAGE SFR              ON UNIT   1015 AT TIME STEP      4, STRESS PERIOD      2
 UBDSV06 SAVING      EVAPORATION IN MODEL EXPERIMENTAL     PACKAGE SFR             CONNECTED TO MODEL EXPERIMENTAL     PACKAGE SFR              ON UNIT   1015 AT TIME STEP      4, STRESS PERIOD      2
 UBDSV06 SAVING           RUNOFF IN MODEL EXPERIMENTAL     PACKAGE SFR             CONNECTED TO MODEL EXPERIMENTAL     PACKAGE SFR              ON UNIT   1015 AT TIME STEP      4, STRESS PERIOD      2
 UBDSV06 SAVING       EXT-INFLOW IN MODEL EXPERIMENTAL     PACKAGE SFR             CONNECTED TO MODEL EXPERIMENTAL     PACKAGE SFR              ON UNIT   1015 AT TIME STEP      4, STRESS PERIOD      2
 UBDSV06 SAVING      EXT-OUTFLOW IN MODEL EXPERIMENTAL     PACKAGE SFR             CONNECTED TO MODEL EXPERIMENTAL     PACKAGE SFR              ON UNIT   1015 AT TIME STEP      4, STRESS PERIOD      2
 UBDSV06 SAVING          STORAGE IN MODEL EXPERIMENTAL     PACKAGE SFR             CONNECTED TO MODEL EXPERIMENTAL     PACKAGE SFR              ON UNIT   1015 AT TIME STEP      4, STRESS PERIOD      2

 HEAD WILL BE SAVED ON UNIT 1020 AT END OF TIME STEP    4, STRESS PERIOD    2

end timestep


start timestep kper="2" kstp="5" mode="normal"

 UBDSV1 SAVING           STO-SS ON UNIT   1019 AT TIME STEP      5, STRESS PERIOD      2
 UBDSV1 SAVING           STO-SY ON UNIT   1019 AT TIME STEP      5, STRESS PERIOD      2
 UBDSV1 SAVING     FLOW-JA-FACE ON UNIT   1019 AT TIME STEP      5, STRESS PERIOD      2
 UBDSV06 SAVING              GHB IN MODEL EXPERIMENTAL     PACKAGE EXPERIMENTAL    CONNECTED TO MODEL EXPERIMENTAL     PACKAGE GHB              ON UNIT   1019 AT TIME STEP      5, STRESS PERIOD      2
 UBDSV06 SAVING              RCH IN MODEL EXPERIMENTAL     PACKAGE EXPERIMENTAL    CONNECTED TO MODEL EXPERIMENTAL     PACKAGE RCH              ON UNIT   1019 AT TIME STEP      5, STRESS PERIOD      2
 UBDSV06 SAVING              SFR IN MODEL EXPERIMENTAL     PACKAGE EXPERIMENTAL    CONNECTED TO MODEL EXPERIMENTAL     PACKAGE SFR              ON UNIT   1019 AT TIME STEP      5, STRESS PERIOD      2
 UBDSV06 SAVING     FLOW-JA-FACE IN MODEL EXPERIMENTAL     PACKAGE SFR             CONNECTED TO MODEL EXPERIMENTAL     PACKAGE SFR              ON UNIT   1015 AT TIME STEP      5, STRESS PERIOD      2
 UBDSV06 SAVING              GWF IN MODEL EXPERIMENTAL     PACKAGE SFR             CONNECTED TO MODEL EXPERIMENTAL     PACKAGE EXPERIMENTAL     ON UNIT   1015 AT TIME STEP      5, STRESS PERIOD      2
 UBDSV06 SAVING         RAINFALL IN MODEL EXPERIMENTAL     PACKAGE SFR             CONNECTED TO MODEL EXPERIMENTAL     PACKAGE SFR              ON UNIT   1015 AT TIME STEP      5, STRESS PERIOD      2
 UBDSV06 SAVING      EVAPORATION IN MODEL EXPERIMENTAL     PACKAGE SFR             CONNECTED TO MODEL EXPERIMENTAL     PACKAGE SFR              ON UNIT   1015 AT TIME STEP      5, STRESS PERIOD      2
 UBDSV06 SAVING           RUNOFF IN MODEL EXPERIMENTAL     PACKAGE SFR             CONNECTED TO MODEL EXPERIMENTAL     PACKAGE SFR              ON UNIT   1015 AT TIME STEP      5, STRESS PERIOD      2
 UBDSV06 SAVING       EXT-INFLOW IN MODEL EXPERIMENTAL     PACKAGE SFR             CONNECTED TO MODEL EXPERIMENTAL     PACKAGE SFR              ON UNIT   1015 AT TIME STEP      5, STRESS PERIOD      2
 UBDSV06 SAVING      EXT-OUTFLOW IN MODEL EXPERIMENTAL     PACKAGE SFR             CONNECTED TO MODEL EXPERIMENTAL     PACKAGE SFR              ON UNIT   1015 AT TIME STEP      5, STRESS PERIOD      2
 UBDSV06 SAVING          STORAGE IN MODEL EXPERIMENTAL     PACKAGE SFR             CONNECTED TO MODEL EXPERIMENTAL     PACKAGE SFR              ON UNIT   1015 AT TIME STEP      5, STRESS PERIOD      2

 HEAD WILL BE SAVED ON UNIT 1020 AT END OF TIME STEP    5, STRESS PERIOD    2

end timestep


start timestep kper="2" kstp="6" mode="normal"

 UBDSV1 SAVING           STO-SS ON UNIT   1019 AT TIME STEP      6, STRESS PERIOD      2
 UBDSV1 SAVING           STO-SY ON UNIT   1019 AT TIME STEP      6, STRESS PERIOD      2
 UBDSV1 SAVING     FLOW-JA-FACE ON UNIT   1019 AT TIME STEP      6, STRESS PERIOD      2
 UBDSV06 SAVING              GHB IN MODEL EXPERIMENTAL     PACKAGE EXPERIMENTAL    CONNECTED TO MODEL EXPERIMENTAL     PACKAGE GHB              ON UNIT   1019 AT TIME STEP      6, STRESS PERIOD      2
 UBDSV06 SAVING              RCH IN MODEL EXPERIMENTAL     PACKAGE EXPERIMENTAL    CONNECTED TO MODEL EXPERIMENTAL     PACKAGE RCH              ON UNIT   1019 AT TIME STEP      6, STRESS PERIOD      2
 UBDSV06 SAVING              SFR IN MODEL EXPERIMENTAL     PACKAGE EXPERIMENTAL    CONNECTED TO MODEL EXPERIMENTAL     PACKAGE SFR              ON UNIT   1019 AT TIME STEP      6, STRESS PERIOD      2
 UBDSV06 SAVING     FLOW-JA-FACE IN MODEL EXPERIMENTAL     PACKAGE SFR             CONNECTED TO MODEL EXPERIMENTAL     PACKAGE SFR              ON UNIT   1015 AT TIME STEP      6, STRESS PERIOD      2
 UBDSV06 SAVING              GWF IN MODEL EXPERIMENTAL     PACKAGE SFR             CONNECTED TO MODEL EXPERIMENTAL     PACKAGE EXPERIMENTAL     ON UNIT   1015 AT TIME STEP      6, STRESS PERIOD      2
 UBDSV06 SAVING         RAINFALL IN MODEL EXPERIMENTAL     PACKAGE SFR             CONNECTED TO MODEL EXPERIMENTAL     PACKAGE SFR              ON UNIT   1015 AT TIME STEP      6, STRESS PERIOD      2
 UBDSV06 SAVING      EVAPORATION IN MODEL EXPERIMENTAL     PACKAGE SFR             CONNECTED TO MODEL EXPERIMENTAL     PACKAGE SFR              ON UNIT   1015 AT TIME STEP      6, STRESS PERIOD      2
 UBDSV06 SAVING           RUNOFF IN MODEL EXPERIMENTAL     PACKAGE SFR             CONNECTED TO MODEL EXPERIMENTAL     PACKAGE SFR              ON UNIT   1015 AT TIME STEP      6, STRESS PERIOD      2
 UBDSV06 SAVING       EXT-INFLOW IN MODEL EXPERIMENTAL     PACKAGE SFR             CONNECTED TO MODEL EXPERIMENTAL     PACKAGE SFR              ON UNIT   1015 AT TIME STEP      6, STRESS PERIOD      2
 UBDSV06 SAVING      EXT-OUTFLOW IN MODEL EXPERIMENTAL     PACKAGE SFR             CONNECTED TO MODEL EXPERIMENTAL     PACKAGE SFR              ON UNIT   1015 AT TIME STEP      6, STRESS PERIOD      2
 UBDSV06 SAVING          STORAGE IN MODEL EXPERIMENTAL     PACKAGE SFR             CONNECTED TO MODEL EXPERIMENTAL     PACKAGE SFR              ON UNIT   1015 AT TIME STEP      6, STRESS PERIOD      2

 HEAD WILL BE SAVED ON UNIT 1020 AT END OF TIME STEP    6, STRESS PERIOD    2

end timestep


start timestep kper="2" kstp="7" mode="normal"

 UBDSV1 SAVING           STO-SS ON UNIT   1019 AT TIME STEP      7, STRESS PERIOD      2
 UBDSV1 SAVING           STO-SY ON UNIT   1019 AT TIME STEP      7, STRESS PERIOD      2
 UBDSV1 SAVING     FLOW-JA-FACE ON UNIT   1019 AT TIME STEP      7, STRESS PERIOD      2
 UBDSV06 SAVING              GHB IN MODEL EXPERIMENTAL     PACKAGE EXPERIMENTAL    CONNECTED TO MODEL EXPERIMENTAL     PACKAGE GHB              ON UNIT   1019 AT TIME STEP      7, STRESS PERIOD      2
 UBDSV06 SAVING              RCH IN MODEL EXPERIMENTAL     PACKAGE EXPERIMENTAL    CONNECTED TO MODEL EXPERIMENTAL     PACKAGE RCH              ON UNIT   1019 AT TIME STEP      7, STRESS PERIOD      2
 UBDSV06 SAVING              SFR IN MODEL EXPERIMENTAL     PACKAGE EXPERIMENTAL    CONNECTED TO MODEL EXPERIMENTAL     PACKAGE SFR              ON UNIT   1019 AT TIME STEP      7, STRESS PERIOD      2
 UBDSV06 SAVING     FLOW-JA-FACE IN MODEL EXPERIMENTAL     PACKAGE SFR             CONNECTED TO MODEL EXPERIMENTAL     PACKAGE SFR              ON UNIT   1015 AT TIME STEP      7, STRESS PERIOD      2
 UBDSV06 SAVING              GWF IN MODEL EXPERIMENTAL     PACKAGE SFR             CONNECTED TO MODEL EXPERIMENTAL     PACKAGE EXPERIMENTAL     ON UNIT   1015 AT TIME STEP      7, STRESS PERIOD      2
 UBDSV06 SAVING         RAINFALL IN MODEL EXPERIMENTAL     PACKAGE SFR             CONNECTED TO MODEL EXPERIMENTAL     PACKAGE SFR              ON UNIT   1015 AT TIME STEP      7, STRESS PERIOD      2
 UBDSV06 SAVING      EVAPORATION IN MODEL EXPERIMENTAL     PACKAGE SFR             CONNECTED TO MODEL EXPERIMENTAL     PACKAGE SFR              ON UNIT   1015 AT TIME STEP      7, STRESS PERIOD      2
 UBDSV06 SAVING           RUNOFF IN MODEL EXPERIMENTAL     PACKAGE SFR             CONNECTED TO MODEL EXPERIMENTAL     PACKAGE SFR              ON UNIT   1015 AT TIME STEP      7, STRESS PERIOD      2
 UBDSV06 SAVING       EXT-INFLOW IN MODEL EXPERIMENTAL     PACKAGE SFR             CONNECTED TO MODEL EXPERIMENTAL     PACKAGE SFR              ON UNIT   1015 AT TIME STEP      7, STRESS PERIOD      2
 UBDSV06 SAVING      EXT-OUTFLOW IN MODEL EXPERIMENTAL     PACKAGE SFR             CONNECTED TO MODEL EXPERIMENTAL     PACKAGE SFR              ON UNIT   1015 AT TIME STEP      7, STRESS PERIOD      2
 UBDSV06 SAVING          STORAGE IN MODEL EXPERIMENTAL     PACKAGE SFR             CONNECTED TO MODEL EXPERIMENTAL     PACKAGE SFR              ON UNIT   1015 AT TIME STEP      7, STRESS PERIOD      2

 HEAD WILL BE SAVED ON UNIT 1020 AT END OF TIME STEP    7, STRESS PERIOD    2

end timestep


start timestep kper="2" kstp="8" mode="normal"

 UBDSV1 SAVING           STO-SS ON UNIT   1019 AT TIME STEP      8, STRESS PERIOD      2
 UBDSV1 SAVING           STO-SY ON UNIT   1019 AT TIME STEP      8, STRESS PERIOD      2
 UBDSV1 SAVING     FLOW-JA-FACE ON UNIT   1019 AT TIME STEP      8, STRESS PERIOD      2
 UBDSV06 SAVING              GHB IN MODEL EXPERIMENTAL     PACKAGE EXPERIMENTAL    CONNECTED TO MODEL EXPERIMENTAL     PACKAGE GHB              ON UNIT   1019 AT TIME STEP      8, STRESS PERIOD      2
 UBDSV06 SAVING              RCH IN MODEL EXPERIMENTAL     PACKAGE EXPERIMENTAL    CONNECTED TO MODEL EXPERIMENTAL     PACKAGE RCH              ON UNIT   1019 AT TIME STEP      8, STRESS PERIOD      2
 UBDSV06 SAVING              SFR IN MODEL EXPERIMENTAL     PACKAGE EXPERIMENTAL    CONNECTED TO MODEL EXPERIMENTAL     PACKAGE SFR              ON UNIT   1019 AT TIME STEP      8, STRESS PERIOD      2
 UBDSV06 SAVING     FLOW-JA-FACE IN MODEL EXPERIMENTAL     PACKAGE SFR             CONNECTED TO MODEL EXPERIMENTAL     PACKAGE SFR              ON UNIT   1015 AT TIME STEP      8, STRESS PERIOD      2
 UBDSV06 SAVING              GWF IN MODEL EXPERIMENTAL     PACKAGE SFR             CONNECTED TO MODEL EXPERIMENTAL     PACKAGE EXPERIMENTAL     ON UNIT   1015 AT TIME STEP      8, STRESS PERIOD      2
 UBDSV06 SAVING         RAINFALL IN MODEL EXPERIMENTAL     PACKAGE SFR             CONNECTED TO MODEL EXPERIMENTAL     PACKAGE SFR              ON UNIT   1015 AT TIME STEP      8, STRESS PERIOD      2
 UBDSV06 SAVING      EVAPORATION IN MODEL EXPERIMENTAL     PACKAGE SFR             CONNECTED TO MODEL EXPERIMENTAL     PACKAGE SFR              ON UNIT   1015 AT TIME STEP      8, STRESS PERIOD      2
 UBDSV06 SAVING           RUNOFF IN MODEL EXPERIMENTAL     PACKAGE SFR             CONNECTED TO MODEL EXPERIMENTAL     PACKAGE SFR              ON UNIT   1015 AT TIME STEP      8, STRESS PERIOD      2
 UBDSV06 SAVING       EXT-INFLOW IN MODEL EXPERIMENTAL     PACKAGE SFR             CONNECTED TO MODEL EXPERIMENTAL     PACKAGE SFR              ON UNIT   1015 AT TIME STEP      8, STRESS PERIOD      2
 UBDSV06 SAVING      EXT-OUTFLOW IN MODEL EXPERIMENTAL     PACKAGE SFR             CONNECTED TO MODEL EXPERIMENTAL     PACKAGE SFR              ON UNIT   1015 AT TIME STEP      8, STRESS PERIOD      2
 UBDSV06 SAVING          STORAGE IN MODEL EXPERIMENTAL     PACKAGE SFR             CONNECTED TO MODEL EXPERIMENTAL     PACKAGE SFR              ON UNIT   1015 AT TIME STEP      8, STRESS PERIOD      2

 HEAD WILL BE SAVED ON UNIT 1020 AT END OF TIME STEP    8, STRESS PERIOD    2

end timestep


start timestep kper="2" kstp="9" mode="normal"

 UBDSV1 SAVING           STO-SS ON UNIT   1019 AT TIME STEP      9, STRESS PERIOD      2
 UBDSV1 SAVING           STO-SY ON UNIT   1019 AT TIME STEP      9, STRESS PERIOD      2
 UBDSV1 SAVING     FLOW-JA-FACE ON UNIT   1019 AT TIME STEP      9, STRESS PERIOD      2
 UBDSV06 SAVING              GHB IN MODEL EXPERIMENTAL     PACKAGE EXPERIMENTAL    CONNECTED TO MODEL EXPERIMENTAL     PACKAGE GHB              ON UNIT   1019 AT TIME STEP      9, STRESS PERIOD      2
 UBDSV06 SAVING              RCH IN MODEL EXPERIMENTAL     PACKAGE EXPERIMENTAL    CONNECTED TO MODEL EXPERIMENTAL     PACKAGE RCH              ON UNIT   1019 AT TIME STEP      9, STRESS PERIOD      2
 UBDSV06 SAVING              SFR IN MODEL EXPERIMENTAL     PACKAGE EXPERIMENTAL    CONNECTED TO MODEL EXPERIMENTAL     PACKAGE SFR              ON UNIT   1019 AT TIME STEP      9, STRESS PERIOD      2
 UBDSV06 SAVING     FLOW-JA-FACE IN MODEL EXPERIMENTAL     PACKAGE SFR             CONNECTED TO MODEL EXPERIMENTAL     PACKAGE SFR              ON UNIT   1015 AT TIME STEP      9, STRESS PERIOD      2
 UBDSV06 SAVING              GWF IN MODEL EXPERIMENTAL     PACKAGE SFR             CONNECTED TO MODEL EXPERIMENTAL     PACKAGE EXPERIMENTAL     ON UNIT   1015 AT TIME STEP      9, STRESS PERIOD      2
 UBDSV06 SAVING         RAINFALL IN MODEL EXPERIMENTAL     PACKAGE SFR             CONNECTED TO MODEL EXPERIMENTAL     PACKAGE SFR              ON UNIT   1015 AT TIME STEP      9, STRESS PERIOD      2
 UBDSV06 SAVING      EVAPORATION IN MODEL EXPERIMENTAL     PACKAGE SFR             CONNECTED TO MODEL EXPERIMENTAL     PACKAGE SFR              ON UNIT   1015 AT TIME STEP      9, STRESS PERIOD      2
 UBDSV06 SAVING           RUNOFF IN MODEL EXPERIMENTAL     PACKAGE SFR             CONNECTED TO MODEL EXPERIMENTAL     PACKAGE SFR              ON UNIT   1015 AT TIME STEP      9, STRESS PERIOD      2
 UBDSV06 SAVING       EXT-INFLOW IN MODEL EXPERIMENTAL     PACKAGE SFR             CONNECTED TO MODEL EXPERIMENTAL     PACKAGE SFR              ON UNIT   1015 AT TIME STEP      9, STRESS PERIOD      2
 UBDSV06 SAVING      EXT-OUTFLOW IN MODEL EXPERIMENTAL     PACKAGE SFR             CONNECTED TO MODEL EXPERIMENTAL     PACKAGE SFR              ON UNIT   1015 AT TIME STEP      9, STRESS PERIOD      2
 UBDSV06 SAVING          STORAGE IN MODEL EXPERIMENTAL     PACKAGE SFR             CONNECTED TO MODEL EXPERIMENTAL     PACKAGE SFR              ON UNIT   1015 AT TIME STEP      9, STRESS PERIOD      2

 HEAD WILL BE SAVED ON UNIT 1020 AT END OF TIME STEP    9, STRESS PERIOD    2

end timestep


start timestep kper="2" kstp="10" mode="normal"

 UBDSV1 SAVING           STO-SS ON UNIT   1019 AT TIME STEP     10, STRESS PERIOD      2
 UBDSV1 SAVING           STO-SY ON UNIT   1019 AT TIME STEP     10, STRESS PERIOD      2
 UBDSV1 SAVING     FLOW-JA-FACE ON UNIT   1019 AT TIME STEP     10, STRESS PERIOD      2
 UBDSV06 SAVING              GHB IN MODEL EXPERIMENTAL     PACKAGE EXPERIMENTAL    CONNECTED TO MODEL EXPERIMENTAL     PACKAGE GHB              ON UNIT   1019 AT TIME STEP     10, STRESS PERIOD      2
 UBDSV06 SAVING              RCH IN MODEL EXPERIMENTAL     PACKAGE EXPERIMENTAL    CONNECTED TO MODEL EXPERIMENTAL     PACKAGE RCH              ON UNIT   1019 AT TIME STEP     10, STRESS PERIOD      2
 UBDSV06 SAVING              SFR IN MODEL EXPERIMENTAL     PACKAGE EXPERIMENTAL    CONNECTED TO MODEL EXPERIMENTAL     PACKAGE SFR              ON UNIT   1019 AT TIME STEP     10, STRESS PERIOD      2
 UBDSV06 SAVING     FLOW-JA-FACE IN MODEL EXPERIMENTAL     PACKAGE SFR             CONNECTED TO MODEL EXPERIMENTAL     PACKAGE SFR              ON UNIT   1015 AT TIME STEP     10, STRESS PERIOD      2
 UBDSV06 SAVING              GWF IN MODEL EXPERIMENTAL     PACKAGE SFR             CONNECTED TO MODEL EXPERIMENTAL     PACKAGE EXPERIMENTAL     ON UNIT   1015 AT TIME STEP     10, STRESS PERIOD      2
 UBDSV06 SAVING         RAINFALL IN MODEL EXPERIMENTAL     PACKAGE SFR             CONNECTED TO MODEL EXPERIMENTAL     PACKAGE SFR              ON UNIT   1015 AT TIME STEP     10, STRESS PERIOD      2
 UBDSV06 SAVING      EVAPORATION IN MODEL EXPERIMENTAL     PACKAGE SFR             CONNECTED TO MODEL EXPERIMENTAL     PACKAGE SFR              ON UNIT   1015 AT TIME STEP     10, STRESS PERIOD      2
 UBDSV06 SAVING           RUNOFF IN MODEL EXPERIMENTAL     PACKAGE SFR             CONNECTED TO MODEL EXPERIMENTAL     PACKAGE SFR              ON UNIT   1015 AT TIME STEP     10, STRESS PERIOD      2
 UBDSV06 SAVING       EXT-INFLOW IN MODEL EXPERIMENTAL     PACKAGE SFR             CONNECTED TO MODEL EXPERIMENTAL     PACKAGE SFR              ON UNIT   1015 AT TIME STEP     10, STRESS PERIOD      2
 UBDSV06 SAVING      EXT-OUTFLOW IN MODEL EXPERIMENTAL     PACKAGE SFR             CONNECTED TO MODEL EXPERIMENTAL     PACKAGE SFR              ON UNIT   1015 AT TIME STEP     10, STRESS PERIOD      2
 UBDSV06 SAVING          STORAGE IN MODEL EXPERIMENTAL     PACKAGE SFR             CONNECTED TO MODEL EXPERIMENTAL     PACKAGE SFR              ON UNIT   1015 AT TIME STEP     10, STRESS PERIOD      2

 HEAD WILL BE SAVED ON UNIT 1020 AT END OF TIME STEP   10, STRESS PERIOD    2

end timestep


start timestep kper="2" kstp="11" mode="normal"

 UBDSV1 SAVING           STO-SS ON UNIT   1019 AT TIME STEP     11, STRESS PERIOD      2
 UBDSV1 SAVING           STO-SY ON UNIT   1019 AT TIME STEP     11, STRESS PERIOD      2
 UBDSV1 SAVING     FLOW-JA-FACE ON UNIT   1019 AT TIME STEP     11, STRESS PERIOD      2
 UBDSV06 SAVING              GHB IN MODEL EXPERIMENTAL     PACKAGE EXPERIMENTAL    CONNECTED TO MODEL EXPERIMENTAL     PACKAGE GHB              ON UNIT   1019 AT TIME STEP     11, STRESS PERIOD      2
 UBDSV06 SAVING              RCH IN MODEL EXPERIMENTAL     PACKAGE EXPERIMENTAL    CONNECTED TO MODEL EXPERIMENTAL     PACKAGE RCH              ON UNIT   1019 AT TIME STEP     11, STRESS PERIOD      2
 UBDSV06 SAVING              SFR IN MODEL EXPERIMENTAL     PACKAGE EXPERIMENTAL    CONNECTED TO MODEL EXPERIMENTAL     PACKAGE SFR              ON UNIT   1019 AT TIME STEP     11, STRESS PERIOD      2
 UBDSV06 SAVING     FLOW-JA-FACE IN MODEL EXPERIMENTAL     PACKAGE SFR             CONNECTED TO MODEL EXPERIMENTAL     PACKAGE SFR              ON UNIT   1015 AT TIME STEP     11, STRESS PERIOD      2
 UBDSV06 SAVING              GWF IN MODEL EXPERIMENTAL     PACKAGE SFR             CONNECTED TO MODEL EXPERIMENTAL     PACKAGE EXPERIMENTAL     ON UNIT   1015 AT TIME STEP     11, STRESS PERIOD      2
 UBDSV06 SAVING         RAINFALL IN MODEL EXPERIMENTAL     PACKAGE SFR             CONNECTED TO MODEL EXPERIMENTAL     PACKAGE SFR              ON UNIT   1015 AT TIME STEP     11, STRESS PERIOD      2
 UBDSV06 SAVING      EVAPORATION IN MODEL EXPERIMENTAL     PACKAGE SFR             CONNECTED TO MODEL EXPERIMENTAL     PACKAGE SFR              ON UNIT   1015 AT TIME STEP     11, STRESS PERIOD      2
 UBDSV06 SAVING           RUNOFF IN MODEL EXPERIMENTAL     PACKAGE SFR             CONNECTED TO MODEL EXPERIMENTAL     PACKAGE SFR              ON UNIT   1015 AT TIME STEP     11, STRESS PERIOD      2
 UBDSV06 SAVING       EXT-INFLOW IN MODEL EXPERIMENTAL     PACKAGE SFR             CONNECTED TO MODEL EXPERIMENTAL     PACKAGE SFR              ON UNIT   1015 AT TIME STEP     11, STRESS PERIOD      2
 UBDSV06 SAVING      EXT-OUTFLOW IN MODEL EXPERIMENTAL     PACKAGE SFR             CONNECTED TO MODEL EXPERIMENTAL     PACKAGE SFR              ON UNIT   1015 AT TIME STEP     11, STRESS PERIOD      2
 UBDSV06 SAVING          STORAGE IN MODEL EXPERIMENTAL     PACKAGE SFR             CONNECTED TO MODEL EXPERIMENTAL     PACKAGE SFR              ON UNIT   1015 AT TIME STEP     11, STRESS PERIOD      2

 HEAD WILL BE SAVED ON UNIT 1020 AT END OF TIME STEP   11, STRESS PERIOD    2

end timestep


start timestep kper="2" kstp="12" mode="normal"

 UBDSV1 SAVING           STO-SS ON UNIT   1019 AT TIME STEP     12, STRESS PERIOD      2
 UBDSV1 SAVING           STO-SY ON UNIT   1019 AT TIME STEP     12, STRESS PERIOD      2
 UBDSV1 SAVING     FLOW-JA-FACE ON UNIT   1019 AT TIME STEP     12, STRESS PERIOD      2
 UBDSV06 SAVING              GHB IN MODEL EXPERIMENTAL     PACKAGE EXPERIMENTAL    CONNECTED TO MODEL EXPERIMENTAL     PACKAGE GHB              ON UNIT   1019 AT TIME STEP     12, STRESS PERIOD      2
 UBDSV06 SAVING              RCH IN MODEL EXPERIMENTAL     PACKAGE EXPERIMENTAL    CONNECTED TO MODEL EXPERIMENTAL     PACKAGE RCH              ON UNIT   1019 AT TIME STEP     12, STRESS PERIOD      2
 UBDSV06 SAVING              SFR IN MODEL EXPERIMENTAL     PACKAGE EXPERIMENTAL    CONNECTED TO MODEL EXPERIMENTAL     PACKAGE SFR              ON UNIT   1019 AT TIME STEP     12, STRESS PERIOD      2
 UBDSV06 SAVING     FLOW-JA-FACE IN MODEL EXPERIMENTAL     PACKAGE SFR             CONNECTED TO MODEL EXPERIMENTAL     PACKAGE SFR              ON UNIT   1015 AT TIME STEP     12, STRESS PERIOD      2
 UBDSV06 SAVING              GWF IN MODEL EXPERIMENTAL     PACKAGE SFR             CONNECTED TO MODEL EXPERIMENTAL     PACKAGE EXPERIMENTAL     ON UNIT   1015 AT TIME STEP     12, STRESS PERIOD      2
 UBDSV06 SAVING         RAINFALL IN MODEL EXPERIMENTAL     PACKAGE SFR             CONNECTED TO MODEL EXPERIMENTAL     PACKAGE SFR              ON UNIT   1015 AT TIME STEP     12, STRESS PERIOD      2
 UBDSV06 SAVING      EVAPORATION IN MODEL EXPERIMENTAL     PACKAGE SFR             CONNECTED TO MODEL EXPERIMENTAL     PACKAGE SFR              ON UNIT   1015 AT TIME STEP     12, STRESS PERIOD      2
 UBDSV06 SAVING           RUNOFF IN MODEL EXPERIMENTAL     PACKAGE SFR             CONNECTED TO MODEL EXPERIMENTAL     PACKAGE SFR              ON UNIT   1015 AT TIME STEP     12, STRESS PERIOD      2
 UBDSV06 SAVING       EXT-INFLOW IN MODEL EXPERIMENTAL     PACKAGE SFR             CONNECTED TO MODEL EXPERIMENTAL     PACKAGE SFR              ON UNIT   1015 AT TIME STEP     12, STRESS PERIOD      2
 UBDSV06 SAVING      EXT-OUTFLOW IN MODEL EXPERIMENTAL     PACKAGE SFR             CONNECTED TO MODEL EXPERIMENTAL     PACKAGE SFR              ON UNIT   1015 AT TIME STEP     12, STRESS PERIOD      2
 UBDSV06 SAVING          STORAGE IN MODEL EXPERIMENTAL     PACKAGE SFR             CONNECTED TO MODEL EXPERIMENTAL     PACKAGE SFR              ON UNIT   1015 AT TIME STEP     12, STRESS PERIOD      2

 HEAD WILL BE SAVED ON UNIT 1020 AT END OF TIME STEP   12, STRESS PERIOD    2

end timestep


start timestep kper="2" kstp="13" mode="normal"

 UBDSV1 SAVING           STO-SS ON UNIT   1019 AT TIME STEP     13, STRESS PERIOD      2
 UBDSV1 SAVING           STO-SY ON UNIT   1019 AT TIME STEP     13, STRESS PERIOD      2
 UBDSV1 SAVING     FLOW-JA-FACE ON UNIT   1019 AT TIME STEP     13, STRESS PERIOD      2
 UBDSV06 SAVING              GHB IN MODEL EXPERIMENTAL     PACKAGE EXPERIMENTAL    CONNECTED TO MODEL EXPERIMENTAL     PACKAGE GHB              ON UNIT   1019 AT TIME STEP     13, STRESS PERIOD      2
 UBDSV06 SAVING              RCH IN MODEL EXPERIMENTAL     PACKAGE EXPERIMENTAL    CONNECTED TO MODEL EXPERIMENTAL     PACKAGE RCH              ON UNIT   1019 AT TIME STEP     13, STRESS PERIOD      2
 UBDSV06 SAVING              SFR IN MODEL EXPERIMENTAL     PACKAGE EXPERIMENTAL    CONNECTED TO MODEL EXPERIMENTAL     PACKAGE SFR              ON UNIT   1019 AT TIME STEP     13, STRESS PERIOD      2
 UBDSV06 SAVING     FLOW-JA-FACE IN MODEL EXPERIMENTAL     PACKAGE SFR             CONNECTED TO MODEL EXPERIMENTAL     PACKAGE SFR              ON UNIT   1015 AT TIME STEP     13, STRESS PERIOD      2
 UBDSV06 SAVING              GWF IN MODEL EXPERIMENTAL     PACKAGE SFR             CONNECTED TO MODEL EXPERIMENTAL     PACKAGE EXPERIMENTAL     ON UNIT   1015 AT TIME STEP     13, STRESS PERIOD      2
 UBDSV06 SAVING         RAINFALL IN MODEL EXPERIMENTAL     PACKAGE SFR             CONNECTED TO MODEL EXPERIMENTAL     PACKAGE SFR              ON UNIT   1015 AT TIME STEP     13, STRESS PERIOD      2
 UBDSV06 SAVING      EVAPORATION IN MODEL EXPERIMENTAL     PACKAGE SFR             CONNECTED TO MODEL EXPERIMENTAL     PACKAGE SFR              ON UNIT   1015 AT TIME STEP     13, STRESS PERIOD      2
 UBDSV06 SAVING           RUNOFF IN MODEL EXPERIMENTAL     PACKAGE SFR             CONNECTED TO MODEL EXPERIMENTAL     PACKAGE SFR              ON UNIT   1015 AT TIME STEP     13, STRESS PERIOD      2
 UBDSV06 SAVING       EXT-INFLOW IN MODEL EXPERIMENTAL     PACKAGE SFR             CONNECTED TO MODEL EXPERIMENTAL     PACKAGE SFR              ON UNIT   1015 AT TIME STEP     13, STRESS PERIOD      2
 UBDSV06 SAVING      EXT-OUTFLOW IN MODEL EXPERIMENTAL     PACKAGE SFR             CONNECTED TO MODEL EXPERIMENTAL     PACKAGE SFR              ON UNIT   1015 AT TIME STEP     13, STRESS PERIOD      2
 UBDSV06 SAVING          STORAGE IN MODEL EXPERIMENTAL     PACKAGE SFR             CONNECTED TO MODEL EXPERIMENTAL     PACKAGE SFR              ON UNIT   1015 AT TIME STEP     13, STRESS PERIOD      2

 HEAD WILL BE SAVED ON UNIT 1020 AT END OF TIME STEP   13, STRESS PERIOD    2

end timestep


start timestep kper="2" kstp="14" mode="normal"

 UBDSV1 SAVING           STO-SS ON UNIT   1019 AT TIME STEP     14, STRESS PERIOD      2
 UBDSV1 SAVING           STO-SY ON UNIT   1019 AT TIME STEP     14, STRESS PERIOD      2
 UBDSV1 SAVING     FLOW-JA-FACE ON UNIT   1019 AT TIME STEP     14, STRESS PERIOD      2
 UBDSV06 SAVING              GHB IN MODEL EXPERIMENTAL     PACKAGE EXPERIMENTAL    CONNECTED TO MODEL EXPERIMENTAL     PACKAGE GHB              ON UNIT   1019 AT TIME STEP     14, STRESS PERIOD      2
 UBDSV06 SAVING              RCH IN MODEL EXPERIMENTAL     PACKAGE EXPERIMENTAL    CONNECTED TO MODEL EXPERIMENTAL     PACKAGE RCH              ON UNIT   1019 AT TIME STEP     14, STRESS PERIOD      2
 UBDSV06 SAVING              SFR IN MODEL EXPERIMENTAL     PACKAGE EXPERIMENTAL    CONNECTED TO MODEL EXPERIMENTAL     PACKAGE SFR              ON UNIT   1019 AT TIME STEP     14, STRESS PERIOD      2
 UBDSV06 SAVING     FLOW-JA-FACE IN MODEL EXPERIMENTAL     PACKAGE SFR             CONNECTED TO MODEL EXPERIMENTAL     PACKAGE SFR              ON UNIT   1015 AT TIME STEP     14, STRESS PERIOD      2
 UBDSV06 SAVING              GWF IN MODEL EXPERIMENTAL     PACKAGE SFR             CONNECTED TO MODEL EXPERIMENTAL     PACKAGE EXPERIMENTAL     ON UNIT   1015 AT TIME STEP     14, STRESS PERIOD      2
 UBDSV06 SAVING         RAINFALL IN MODEL EXPERIMENTAL     PACKAGE SFR             CONNECTED TO MODEL EXPERIMENTAL     PACKAGE SFR              ON UNIT   1015 AT TIME STEP     14, STRESS PERIOD      2
 UBDSV06 SAVING      EVAPORATION IN MODEL EXPERIMENTAL     PACKAGE SFR             CONNECTED TO MODEL EXPERIMENTAL     PACKAGE SFR              ON UNIT   1015 AT TIME STEP     14, STRESS PERIOD      2
 UBDSV06 SAVING           RUNOFF IN MODEL EXPERIMENTAL     PACKAGE SFR             CONNECTED TO MODEL EXPERIMENTAL     PACKAGE SFR              ON UNIT   1015 AT TIME STEP     14, STRESS PERIOD      2
 UBDSV06 SAVING       EXT-INFLOW IN MODEL EXPERIMENTAL     PACKAGE SFR             CONNECTED TO MODEL EXPERIMENTAL     PACKAGE SFR              ON UNIT   1015 AT TIME STEP     14, STRESS PERIOD      2
 UBDSV06 SAVING      EXT-OUTFLOW IN MODEL EXPERIMENTAL     PACKAGE SFR             CONNECTED TO MODEL EXPERIMENTAL     PACKAGE SFR              ON UNIT   1015 AT TIME STEP     14, STRESS PERIOD      2
 UBDSV06 SAVING          STORAGE IN MODEL EXPERIMENTAL     PACKAGE SFR             CONNECTED TO MODEL EXPERIMENTAL     PACKAGE SFR              ON UNIT   1015 AT TIME STEP     14, STRESS PERIOD      2

 HEAD WILL BE SAVED ON UNIT 1020 AT END OF TIME STEP   14, STRESS PERIOD    2

end timestep


start timestep kper="2" kstp="15" mode="normal"

 UBDSV1 SAVING           STO-SS ON UNIT   1019 AT TIME STEP     15, STRESS PERIOD      2
 UBDSV1 SAVING           STO-SY ON UNIT   1019 AT TIME STEP     15, STRESS PERIOD      2
 UBDSV1 SAVING     FLOW-JA-FACE ON UNIT   1019 AT TIME STEP     15, STRESS PERIOD      2
 UBDSV06 SAVING              GHB IN MODEL EXPERIMENTAL     PACKAGE EXPERIMENTAL    CONNECTED TO MODEL EXPERIMENTAL     PACKAGE GHB              ON UNIT   1019 AT TIME STEP     15, STRESS PERIOD      2
 UBDSV06 SAVING              RCH IN MODEL EXPERIMENTAL     PACKAGE EXPERIMENTAL    CONNECTED TO MODEL EXPERIMENTAL     PACKAGE RCH              ON UNIT   1019 AT TIME STEP     15, STRESS PERIOD      2
 UBDSV06 SAVING              SFR IN MODEL EXPERIMENTAL     PACKAGE EXPERIMENTAL    CONNECTED TO MODEL EXPERIMENTAL     PACKAGE SFR              ON UNIT   1019 AT TIME STEP     15, STRESS PERIOD      2
 UBDSV06 SAVING     FLOW-JA-FACE IN MODEL EXPERIMENTAL     PACKAGE SFR             CONNECTED TO MODEL EXPERIMENTAL     PACKAGE SFR              ON UNIT   1015 AT TIME STEP     15, STRESS PERIOD      2
 UBDSV06 SAVING              GWF IN MODEL EXPERIMENTAL     PACKAGE SFR             CONNECTED TO MODEL EXPERIMENTAL     PACKAGE EXPERIMENTAL     ON UNIT   1015 AT TIME STEP     15, STRESS PERIOD      2
 UBDSV06 SAVING         RAINFALL IN MODEL EXPERIMENTAL     PACKAGE SFR             CONNECTED TO MODEL EXPERIMENTAL     PACKAGE SFR              ON UNIT   1015 AT TIME STEP     15, STRESS PERIOD      2
 UBDSV06 SAVING      EVAPORATION IN MODEL EXPERIMENTAL     PACKAGE SFR             CONNECTED TO MODEL EXPERIMENTAL     PACKAGE SFR              ON UNIT   1015 AT TIME STEP     15, STRESS PERIOD      2
 UBDSV06 SAVING           RUNOFF IN MODEL EXPERIMENTAL     PACKAGE SFR             CONNECTED TO MODEL EXPERIMENTAL     PACKAGE SFR              ON UNIT   1015 AT TIME STEP     15, STRESS PERIOD      2
 UBDSV06 SAVING       EXT-INFLOW IN MODEL EXPERIMENTAL     PACKAGE SFR             CONNECTED TO MODEL EXPERIMENTAL     PACKAGE SFR              ON UNIT   1015 AT TIME STEP     15, STRESS PERIOD      2
 UBDSV06 SAVING      EXT-OUTFLOW IN MODEL EXPERIMENTAL     PACKAGE SFR             CONNECTED TO MODEL EXPERIMENTAL     PACKAGE SFR              ON UNIT   1015 AT TIME STEP     15, STRESS PERIOD      2
 UBDSV06 SAVING          STORAGE IN MODEL EXPERIMENTAL     PACKAGE SFR             CONNECTED TO MODEL EXPERIMENTAL     PACKAGE SFR              ON UNIT   1015 AT TIME STEP     15, STRESS PERIOD      2

 HEAD WILL BE SAVED ON UNIT 1020 AT END OF TIME STEP   15, STRESS PERIOD    2

end timestep


start timestep kper="2" kstp="16" mode="normal"

 UBDSV1 SAVING           STO-SS ON UNIT   1019 AT TIME STEP     16, STRESS PERIOD      2
 UBDSV1 SAVING           STO-SY ON UNIT   1019 AT TIME STEP     16, STRESS PERIOD      2
 UBDSV1 SAVING     FLOW-JA-FACE ON UNIT   1019 AT TIME STEP     16, STRESS PERIOD      2
 UBDSV06 SAVING              GHB IN MODEL EXPERIMENTAL     PACKAGE EXPERIMENTAL    CONNECTED TO MODEL EXPERIMENTAL     PACKAGE GHB              ON UNIT   1019 AT TIME STEP     16, STRESS PERIOD      2
 UBDSV06 SAVING              RCH IN MODEL EXPERIMENTAL     PACKAGE EXPERIMENTAL    CONNECTED TO MODEL EXPERIMENTAL     PACKAGE RCH              ON UNIT   1019 AT TIME STEP     16, STRESS PERIOD      2
 UBDSV06 SAVING              SFR IN MODEL EXPERIMENTAL     PACKAGE EXPERIMENTAL    CONNECTED TO MODEL EXPERIMENTAL     PACKAGE SFR              ON UNIT   1019 AT TIME STEP     16, STRESS PERIOD      2
 UBDSV06 SAVING     FLOW-JA-FACE IN MODEL EXPERIMENTAL     PACKAGE SFR             CONNECTED TO MODEL EXPERIMENTAL     PACKAGE SFR              ON UNIT   1015 AT TIME STEP     16, STRESS PERIOD      2
 UBDSV06 SAVING              GWF IN MODEL EXPERIMENTAL     PACKAGE SFR             CONNECTED TO MODEL EXPERIMENTAL     PACKAGE EXPERIMENTAL     ON UNIT   1015 AT TIME STEP     16, STRESS PERIOD      2
 UBDSV06 SAVING         RAINFALL IN MODEL EXPERIMENTAL     PACKAGE SFR             CONNECTED TO MODEL EXPERIMENTAL     PACKAGE SFR              ON UNIT   1015 AT TIME STEP     16, STRESS PERIOD      2
 UBDSV06 SAVING      EVAPORATION IN MODEL EXPERIMENTAL     PACKAGE SFR             CONNECTED TO MODEL EXPERIMENTAL     PACKAGE SFR              ON UNIT   1015 AT TIME STEP     16, STRESS PERIOD      2
 UBDSV06 SAVING           RUNOFF IN MODEL EXPERIMENTAL     PACKAGE SFR             CONNECTED TO MODEL EXPERIMENTAL     PACKAGE SFR              ON UNIT   1015 AT TIME STEP     16, STRESS PERIOD      2
 UBDSV06 SAVING       EXT-INFLOW IN MODEL EXPERIMENTAL     PACKAGE SFR             CONNECTED TO MODEL EXPERIMENTAL     PACKAGE SFR              ON UNIT   1015 AT TIME STEP     16, STRESS PERIOD      2
 UBDSV06 SAVING      EXT-OUTFLOW IN MODEL EXPERIMENTAL     PACKAGE SFR             CONNECTED TO MODEL EXPERIMENTAL     PACKAGE SFR              ON UNIT   1015 AT TIME STEP     16, STRESS PERIOD      2
 UBDSV06 SAVING          STORAGE IN MODEL EXPERIMENTAL     PACKAGE SFR             CONNECTED TO MODEL EXPERIMENTAL     PACKAGE SFR              ON UNIT   1015 AT TIME STEP     16, STRESS PERIOD      2

 HEAD WILL BE SAVED ON UNIT 1020 AT END OF TIME STEP   16, STRESS PERIOD    2

end timestep


start timestep kper="2" kstp="17" mode="normal"

 UBDSV1 SAVING           STO-SS ON UNIT   1019 AT TIME STEP     17, STRESS PERIOD      2
 UBDSV1 SAVING           STO-SY ON UNIT   1019 AT TIME STEP     17, STRESS PERIOD      2
 UBDSV1 SAVING     FLOW-JA-FACE ON UNIT   1019 AT TIME STEP     17, STRESS PERIOD      2
 UBDSV06 SAVING              GHB IN MODEL EXPERIMENTAL     PACKAGE EXPERIMENTAL    CONNECTED TO MODEL EXPERIMENTAL     PACKAGE GHB              ON UNIT   1019 AT TIME STEP     17, STRESS PERIOD      2
 UBDSV06 SAVING              RCH IN MODEL EXPERIMENTAL     PACKAGE EXPERIMENTAL    CONNECTED TO MODEL EXPERIMENTAL     PACKAGE RCH              ON UNIT   1019 AT TIME STEP     17, STRESS PERIOD      2
 UBDSV06 SAVING              SFR IN MODEL EXPERIMENTAL     PACKAGE EXPERIMENTAL    CONNECTED TO MODEL EXPERIMENTAL     PACKAGE SFR              ON UNIT   1019 AT TIME STEP     17, STRESS PERIOD      2
 UBDSV06 SAVING     FLOW-JA-FACE IN MODEL EXPERIMENTAL     PACKAGE SFR             CONNECTED TO MODEL EXPERIMENTAL     PACKAGE SFR              ON UNIT   1015 AT TIME STEP     17, STRESS PERIOD      2
 UBDSV06 SAVING              GWF IN MODEL EXPERIMENTAL     PACKAGE SFR             CONNECTED TO MODEL EXPERIMENTAL     PACKAGE EXPERIMENTAL     ON UNIT   1015 AT TIME STEP     17, STRESS PERIOD      2
 UBDSV06 SAVING         RAINFALL IN MODEL EXPERIMENTAL     PACKAGE SFR             CONNECTED TO MODEL EXPERIMENTAL     PACKAGE SFR              ON UNIT   1015 AT TIME STEP     17, STRESS PERIOD      2
 UBDSV06 SAVING      EVAPORATION IN MODEL EXPERIMENTAL     PACKAGE SFR             CONNECTED TO MODEL EXPERIMENTAL     PACKAGE SFR              ON UNIT   1015 AT TIME STEP     17, STRESS PERIOD      2
 UBDSV06 SAVING           RUNOFF IN MODEL EXPERIMENTAL     PACKAGE SFR             CONNECTED TO MODEL EXPERIMENTAL     PACKAGE SFR              ON UNIT   1015 AT TIME STEP     17, STRESS PERIOD      2
 UBDSV06 SAVING       EXT-INFLOW IN MODEL EXPERIMENTAL     PACKAGE SFR             CONNECTED TO MODEL EXPERIMENTAL     PACKAGE SFR              ON UNIT   1015 AT TIME STEP     17, STRESS PERIOD      2
 UBDSV06 SAVING      EXT-OUTFLOW IN MODEL EXPERIMENTAL     PACKAGE SFR             CONNECTED TO MODEL EXPERIMENTAL     PACKAGE SFR              ON UNIT   1015 AT TIME STEP     17, STRESS PERIOD      2
 UBDSV06 SAVING          STORAGE IN MODEL EXPERIMENTAL     PACKAGE SFR             CONNECTED TO MODEL EXPERIMENTAL     PACKAGE SFR              ON UNIT   1015 AT TIME STEP     17, STRESS PERIOD      2

 HEAD WILL BE SAVED ON UNIT 1020 AT END OF TIME STEP   17, STRESS PERIOD    2

end timestep


start timestep kper="2" kstp="18" mode="normal"

 UBDSV1 SAVING           STO-SS ON UNIT   1019 AT TIME STEP     18, STRESS PERIOD      2
 UBDSV1 SAVING           STO-SY ON UNIT   1019 AT TIME STEP     18, STRESS PERIOD      2
 UBDSV1 SAVING     FLOW-JA-FACE ON UNIT   1019 AT TIME STEP     18, STRESS PERIOD      2
 UBDSV06 SAVING              GHB IN MODEL EXPERIMENTAL     PACKAGE EXPERIMENTAL    CONNECTED TO MODEL EXPERIMENTAL     PACKAGE GHB              ON UNIT   1019 AT TIME STEP     18, STRESS PERIOD      2
 UBDSV06 SAVING              RCH IN MODEL EXPERIMENTAL     PACKAGE EXPERIMENTAL    CONNECTED TO MODEL EXPERIMENTAL     PACKAGE RCH              ON UNIT   1019 AT TIME STEP     18, STRESS PERIOD      2
 UBDSV06 SAVING              SFR IN MODEL EXPERIMENTAL     PACKAGE EXPERIMENTAL    CONNECTED TO MODEL EXPERIMENTAL     PACKAGE SFR              ON UNIT   1019 AT TIME STEP     18, STRESS PERIOD      2
 UBDSV06 SAVING     FLOW-JA-FACE IN MODEL EXPERIMENTAL     PACKAGE SFR             CONNECTED TO MODEL EXPERIMENTAL     PACKAGE SFR              ON UNIT   1015 AT TIME STEP     18, STRESS PERIOD      2
 UBDSV06 SAVING              GWF IN MODEL EXPERIMENTAL     PACKAGE SFR             CONNECTED TO MODEL EXPERIMENTAL     PACKAGE EXPERIMENTAL     ON UNIT   1015 AT TIME STEP     18, STRESS PERIOD      2
 UBDSV06 SAVING         RAINFALL IN MODEL EXPERIMENTAL     PACKAGE SFR             CONNECTED TO MODEL EXPERIMENTAL     PACKAGE SFR              ON UNIT   1015 AT TIME STEP     18, STRESS PERIOD      2
 UBDSV06 SAVING      EVAPORATION IN MODEL EXPERIMENTAL     PACKAGE SFR             CONNECTED TO MODEL EXPERIMENTAL     PACKAGE SFR              ON UNIT   1015 AT TIME STEP     18, STRESS PERIOD      2
 UBDSV06 SAVING           RUNOFF IN MODEL EXPERIMENTAL     PACKAGE SFR             CONNECTED TO MODEL EXPERIMENTAL     PACKAGE SFR              ON UNIT   1015 AT TIME STEP     18, STRESS PERIOD      2
 UBDSV06 SAVING       EXT-INFLOW IN MODEL EXPERIMENTAL     PACKAGE SFR             CONNECTED TO MODEL EXPERIMENTAL     PACKAGE SFR              ON UNIT   1015 AT TIME STEP     18, STRESS PERIOD      2
 UBDSV06 SAVING      EXT-OUTFLOW IN MODEL EXPERIMENTAL     PACKAGE SFR             CONNECTED TO MODEL EXPERIMENTAL     PACKAGE SFR              ON UNIT   1015 AT TIME STEP     18, STRESS PERIOD      2
 UBDSV06 SAVING          STORAGE IN MODEL EXPERIMENTAL     PACKAGE SFR             CONNECTED TO MODEL EXPERIMENTAL     PACKAGE SFR              ON UNIT   1015 AT TIME STEP     18, STRESS PERIOD      2

 HEAD WILL BE SAVED ON UNIT 1020 AT END OF TIME STEP   18, STRESS PERIOD    2

end timestep


start timestep kper="2" kstp="19" mode="normal"

 UBDSV1 SAVING           STO-SS ON UNIT   1019 AT TIME STEP     19, STRESS PERIOD      2
 UBDSV1 SAVING           STO-SY ON UNIT   1019 AT TIME STEP     19, STRESS PERIOD      2
 UBDSV1 SAVING     FLOW-JA-FACE ON UNIT   1019 AT TIME STEP     19, STRESS PERIOD      2
 UBDSV06 SAVING              GHB IN MODEL EXPERIMENTAL     PACKAGE EXPERIMENTAL    CONNECTED TO MODEL EXPERIMENTAL     PACKAGE GHB              ON UNIT   1019 AT TIME STEP     19, STRESS PERIOD      2
 UBDSV06 SAVING              RCH IN MODEL EXPERIMENTAL     PACKAGE EXPERIMENTAL    CONNECTED TO MODEL EXPERIMENTAL     PACKAGE RCH              ON UNIT   1019 AT TIME STEP     19, STRESS PERIOD      2
 UBDSV06 SAVING              SFR IN MODEL EXPERIMENTAL     PACKAGE EXPERIMENTAL    CONNECTED TO MODEL EXPERIMENTAL     PACKAGE SFR              ON UNIT   1019 AT TIME STEP     19, STRESS PERIOD      2
 UBDSV06 SAVING     FLOW-JA-FACE IN MODEL EXPERIMENTAL     PACKAGE SFR             CONNECTED TO MODEL EXPERIMENTAL     PACKAGE SFR              ON UNIT   1015 AT TIME STEP     19, STRESS PERIOD      2
 UBDSV06 SAVING              GWF IN MODEL EXPERIMENTAL     PACKAGE SFR             CONNECTED TO MODEL EXPERIMENTAL     PACKAGE EXPERIMENTAL     ON UNIT   1015 AT TIME STEP     19, STRESS PERIOD      2
 UBDSV06 SAVING         RAINFALL IN MODEL EXPERIMENTAL     PACKAGE SFR             CONNECTED TO MODEL EXPERIMENTAL     PACKAGE SFR              ON UNIT   1015 AT TIME STEP     19, STRESS PERIOD      2
 UBDSV06 SAVING      EVAPORATION IN MODEL EXPERIMENTAL     PACKAGE SFR             CONNECTED TO MODEL EXPERIMENTAL     PACKAGE SFR              ON UNIT   1015 AT TIME STEP     19, STRESS PERIOD      2
 UBDSV06 SAVING           RUNOFF IN MODEL EXPERIMENTAL     PACKAGE SFR             CONNECTED TO MODEL EXPERIMENTAL     PACKAGE SFR              ON UNIT   1015 AT TIME STEP     19, STRESS PERIOD      2
 UBDSV06 SAVING       EXT-INFLOW IN MODEL EXPERIMENTAL     PACKAGE SFR             CONNECTED TO MODEL EXPERIMENTAL     PACKAGE SFR              ON UNIT   1015 AT TIME STEP     19, STRESS PERIOD      2
 UBDSV06 SAVING      EXT-OUTFLOW IN MODEL EXPERIMENTAL     PACKAGE SFR             CONNECTED TO MODEL EXPERIMENTAL     PACKAGE SFR              ON UNIT   1015 AT TIME STEP     19, STRESS PERIOD      2
 UBDSV06 SAVING          STORAGE IN MODEL EXPERIMENTAL     PACKAGE SFR             CONNECTED TO MODEL EXPERIMENTAL     PACKAGE SFR              ON UNIT   1015 AT TIME STEP     19, STRESS PERIOD      2

 HEAD WILL BE SAVED ON UNIT 1020 AT END OF TIME STEP   19, STRESS PERIOD    2

end timestep


start timestep kper="2" kstp="20" mode="normal"

 UBDSV1 SAVING           STO-SS ON UNIT   1019 AT TIME STEP     20, STRESS PERIOD      2
 UBDSV1 SAVING           STO-SY ON UNIT   1019 AT TIME STEP     20, STRESS PERIOD      2
 UBDSV1 SAVING     FLOW-JA-FACE ON UNIT   1019 AT TIME STEP     20, STRESS PERIOD      2
 UBDSV06 SAVING              GHB IN MODEL EXPERIMENTAL     PACKAGE EXPERIMENTAL    CONNECTED TO MODEL EXPERIMENTAL     PACKAGE GHB              ON UNIT   1019 AT TIME STEP     20, STRESS PERIOD      2
 UBDSV06 SAVING              RCH IN MODEL EXPERIMENTAL     PACKAGE EXPERIMENTAL    CONNECTED TO MODEL EXPERIMENTAL     PACKAGE RCH              ON UNIT   1019 AT TIME STEP     20, STRESS PERIOD      2
 UBDSV06 SAVING              SFR IN MODEL EXPERIMENTAL     PACKAGE EXPERIMENTAL    CONNECTED TO MODEL EXPERIMENTAL     PACKAGE SFR              ON UNIT   1019 AT TIME STEP     20, STRESS PERIOD      2
 UBDSV06 SAVING     FLOW-JA-FACE IN MODEL EXPERIMENTAL     PACKAGE SFR             CONNECTED TO MODEL EXPERIMENTAL     PACKAGE SFR              ON UNIT   1015 AT TIME STEP     20, STRESS PERIOD      2
 UBDSV06 SAVING              GWF IN MODEL EXPERIMENTAL     PACKAGE SFR             CONNECTED TO MODEL EXPERIMENTAL     PACKAGE EXPERIMENTAL     ON UNIT   1015 AT TIME STEP     20, STRESS PERIOD      2
 UBDSV06 SAVING         RAINFALL IN MODEL EXPERIMENTAL     PACKAGE SFR             CONNECTED TO MODEL EXPERIMENTAL     PACKAGE SFR              ON UNIT   1015 AT TIME STEP     20, STRESS PERIOD      2
 UBDSV06 SAVING      EVAPORATION IN MODEL EXPERIMENTAL     PACKAGE SFR             CONNECTED TO MODEL EXPERIMENTAL     PACKAGE SFR              ON UNIT   1015 AT TIME STEP     20, STRESS PERIOD      2
 UBDSV06 SAVING           RUNOFF IN MODEL EXPERIMENTAL     PACKAGE SFR             CONNECTED TO MODEL EXPERIMENTAL     PACKAGE SFR              ON UNIT   1015 AT TIME STEP     20, STRESS PERIOD      2
 UBDSV06 SAVING       EXT-INFLOW IN MODEL EXPERIMENTAL     PACKAGE SFR             CONNECTED TO MODEL EXPERIMENTAL     PACKAGE SFR              ON UNIT   1015 AT TIME STEP     20, STRESS PERIOD      2
 UBDSV06 SAVING      EXT-OUTFLOW IN MODEL EXPERIMENTAL     PACKAGE SFR             CONNECTED TO MODEL EXPERIMENTAL     PACKAGE SFR              ON UNIT   1015 AT TIME STEP     20, STRESS PERIOD      2
 UBDSV06 SAVING          STORAGE IN MODEL EXPERIMENTAL     PACKAGE SFR             CONNECTED TO MODEL EXPERIMENTAL     PACKAGE SFR              ON UNIT   1015 AT TIME STEP     20, STRESS PERIOD      2

 HEAD WILL BE SAVED ON UNIT 1020 AT END OF TIME STEP   20, STRESS PERIOD    2

end timestep


start timestep kper="2" kstp="21" mode="normal"

 UBDSV1 SAVING           STO-SS ON UNIT   1019 AT TIME STEP     21, STRESS PERIOD      2
 UBDSV1 SAVING           STO-SY ON UNIT   1019 AT TIME STEP     21, STRESS PERIOD      2
 UBDSV1 SAVING     FLOW-JA-FACE ON UNIT   1019 AT TIME STEP     21, STRESS PERIOD      2
 UBDSV06 SAVING              GHB IN MODEL EXPERIMENTAL     PACKAGE EXPERIMENTAL    CONNECTED TO MODEL EXPERIMENTAL     PACKAGE GHB              ON UNIT   1019 AT TIME STEP     21, STRESS PERIOD      2
 UBDSV06 SAVING              RCH IN MODEL EXPERIMENTAL     PACKAGE EXPERIMENTAL    CONNECTED TO MODEL EXPERIMENTAL     PACKAGE RCH              ON UNIT   1019 AT TIME STEP     21, STRESS PERIOD      2
 UBDSV06 SAVING              SFR IN MODEL EXPERIMENTAL     PACKAGE EXPERIMENTAL    CONNECTED TO MODEL EXPERIMENTAL     PACKAGE SFR              ON UNIT   1019 AT TIME STEP     21, STRESS PERIOD      2
 UBDSV06 SAVING     FLOW-JA-FACE IN MODEL EXPERIMENTAL     PACKAGE SFR             CONNECTED TO MODEL EXPERIMENTAL     PACKAGE SFR              ON UNIT   1015 AT TIME STEP     21, STRESS PERIOD      2
 UBDSV06 SAVING              GWF IN MODEL EXPERIMENTAL     PACKAGE SFR             CONNECTED TO MODEL EXPERIMENTAL     PACKAGE EXPERIMENTAL     ON UNIT   1015 AT TIME STEP     21, STRESS PERIOD      2
 UBDSV06 SAVING         RAINFALL IN MODEL EXPERIMENTAL     PACKAGE SFR             CONNECTED TO MODEL EXPERIMENTAL     PACKAGE SFR              ON UNIT   1015 AT TIME STEP     21, STRESS PERIOD      2
 UBDSV06 SAVING      EVAPORATION IN MODEL EXPERIMENTAL     PACKAGE SFR             CONNECTED TO MODEL EXPERIMENTAL     PACKAGE SFR              ON UNIT   1015 AT TIME STEP     21, STRESS PERIOD      2
 UBDSV06 SAVING           RUNOFF IN MODEL EXPERIMENTAL     PACKAGE SFR             CONNECTED TO MODEL EXPERIMENTAL     PACKAGE SFR              ON UNIT   1015 AT TIME STEP     21, STRESS PERIOD      2
 UBDSV06 SAVING       EXT-INFLOW IN MODEL EXPERIMENTAL     PACKAGE SFR             CONNECTED TO MODEL EXPERIMENTAL     PACKAGE SFR              ON UNIT   1015 AT TIME STEP     21, STRESS PERIOD      2
 UBDSV06 SAVING      EXT-OUTFLOW IN MODEL EXPERIMENTAL     PACKAGE SFR             CONNECTED TO MODEL EXPERIMENTAL     PACKAGE SFR              ON UNIT   1015 AT TIME STEP     21, STRESS PERIOD      2
 UBDSV06 SAVING          STORAGE IN MODEL EXPERIMENTAL     PACKAGE SFR             CONNECTED TO MODEL EXPERIMENTAL     PACKAGE SFR              ON UNIT   1015 AT TIME STEP     21, STRESS PERIOD      2

 HEAD WILL BE SAVED ON UNIT 1020 AT END OF TIME STEP   21, STRESS PERIOD    2

end timestep


start timestep kper="2" kstp="22" mode="normal"

 UBDSV1 SAVING           STO-SS ON UNIT   1019 AT TIME STEP     22, STRESS PERIOD      2
 UBDSV1 SAVING           STO-SY ON UNIT   1019 AT TIME STEP     22, STRESS PERIOD      2
 UBDSV1 SAVING     FLOW-JA-FACE ON UNIT   1019 AT TIME STEP     22, STRESS PERIOD      2
 UBDSV06 SAVING              GHB IN MODEL EXPERIMENTAL     PACKAGE EXPERIMENTAL    CONNECTED TO MODEL EXPERIMENTAL     PACKAGE GHB              ON UNIT   1019 AT TIME STEP     22, STRESS PERIOD      2
 UBDSV06 SAVING              RCH IN MODEL EXPERIMENTAL     PACKAGE EXPERIMENTAL    CONNECTED TO MODEL EXPERIMENTAL     PACKAGE RCH              ON UNIT   1019 AT TIME STEP     22, STRESS PERIOD      2
 UBDSV06 SAVING              SFR IN MODEL EXPERIMENTAL     PACKAGE EXPERIMENTAL    CONNECTED TO MODEL EXPERIMENTAL     PACKAGE SFR              ON UNIT   1019 AT TIME STEP     22, STRESS PERIOD      2
 UBDSV06 SAVING     FLOW-JA-FACE IN MODEL EXPERIMENTAL     PACKAGE SFR             CONNECTED TO MODEL EXPERIMENTAL     PACKAGE SFR              ON UNIT   1015 AT TIME STEP     22, STRESS PERIOD      2
 UBDSV06 SAVING              GWF IN MODEL EXPERIMENTAL     PACKAGE SFR             CONNECTED TO MODEL EXPERIMENTAL     PACKAGE EXPERIMENTAL     ON UNIT   1015 AT TIME STEP     22, STRESS PERIOD      2
 UBDSV06 SAVING         RAINFALL IN MODEL EXPERIMENTAL     PACKAGE SFR             CONNECTED TO MODEL EXPERIMENTAL     PACKAGE SFR              ON UNIT   1015 AT TIME STEP     22, STRESS PERIOD      2
 UBDSV06 SAVING      EVAPORATION IN MODEL EXPERIMENTAL     PACKAGE SFR             CONNECTED TO MODEL EXPERIMENTAL     PACKAGE SFR              ON UNIT   1015 AT TIME STEP     22, STRESS PERIOD      2
 UBDSV06 SAVING           RUNOFF IN MODEL EXPERIMENTAL     PACKAGE SFR             CONNECTED TO MODEL EXPERIMENTAL     PACKAGE SFR              ON UNIT   1015 AT TIME STEP     22, STRESS PERIOD      2
 UBDSV06 SAVING       EXT-INFLOW IN MODEL EXPERIMENTAL     PACKAGE SFR             CONNECTED TO MODEL EXPERIMENTAL     PACKAGE SFR              ON UNIT   1015 AT TIME STEP     22, STRESS PERIOD      2
 UBDSV06 SAVING      EXT-OUTFLOW IN MODEL EXPERIMENTAL     PACKAGE SFR             CONNECTED TO MODEL EXPERIMENTAL     PACKAGE SFR              ON UNIT   1015 AT TIME STEP     22, STRESS PERIOD      2
 UBDSV06 SAVING          STORAGE IN MODEL EXPERIMENTAL     PACKAGE SFR             CONNECTED TO MODEL EXPERIMENTAL     PACKAGE SFR              ON UNIT   1015 AT TIME STEP     22, STRESS PERIOD      2

 HEAD WILL BE SAVED ON UNIT 1020 AT END OF TIME STEP   22, STRESS PERIOD    2

end timestep


start timestep kper="2" kstp="23" mode="normal"

 UBDSV1 SAVING           STO-SS ON UNIT   1019 AT TIME STEP     23, STRESS PERIOD      2
 UBDSV1 SAVING           STO-SY ON UNIT   1019 AT TIME STEP     23, STRESS PERIOD      2
 UBDSV1 SAVING     FLOW-JA-FACE ON UNIT   1019 AT TIME STEP     23, STRESS PERIOD      2
 UBDSV06 SAVING              GHB IN MODEL EXPERIMENTAL     PACKAGE EXPERIMENTAL    CONNECTED TO MODEL EXPERIMENTAL     PACKAGE GHB              ON UNIT   1019 AT TIME STEP     23, STRESS PERIOD      2
 UBDSV06 SAVING              RCH IN MODEL EXPERIMENTAL     PACKAGE EXPERIMENTAL    CONNECTED TO MODEL EXPERIMENTAL     PACKAGE RCH              ON UNIT   1019 AT TIME STEP     23, STRESS PERIOD      2
 UBDSV06 SAVING              SFR IN MODEL EXPERIMENTAL     PACKAGE EXPERIMENTAL    CONNECTED TO MODEL EXPERIMENTAL     PACKAGE SFR              ON UNIT   1019 AT TIME STEP     23, STRESS PERIOD      2
 UBDSV06 SAVING     FLOW-JA-FACE IN MODEL EXPERIMENTAL     PACKAGE SFR             CONNECTED TO MODEL EXPERIMENTAL     PACKAGE SFR              ON UNIT   1015 AT TIME STEP     23, STRESS PERIOD      2
 UBDSV06 SAVING              GWF IN MODEL EXPERIMENTAL     PACKAGE SFR             CONNECTED TO MODEL EXPERIMENTAL     PACKAGE EXPERIMENTAL     ON UNIT   1015 AT TIME STEP     23, STRESS PERIOD      2
 UBDSV06 SAVING         RAINFALL IN MODEL EXPERIMENTAL     PACKAGE SFR             CONNECTED TO MODEL EXPERIMENTAL     PACKAGE SFR              ON UNIT   1015 AT TIME STEP     23, STRESS PERIOD      2
 UBDSV06 SAVING      EVAPORATION IN MODEL EXPERIMENTAL     PACKAGE SFR             CONNECTED TO MODEL EXPERIMENTAL     PACKAGE SFR              ON UNIT   1015 AT TIME STEP     23, STRESS PERIOD      2
 UBDSV06 SAVING           RUNOFF IN MODEL EXPERIMENTAL     PACKAGE SFR             CONNECTED TO MODEL EXPERIMENTAL     PACKAGE SFR              ON UNIT   1015 AT TIME STEP     23, STRESS PERIOD      2
 UBDSV06 SAVING       EXT-INFLOW IN MODEL EXPERIMENTAL     PACKAGE SFR             CONNECTED TO MODEL EXPERIMENTAL     PACKAGE SFR              ON UNIT   1015 AT TIME STEP     23, STRESS PERIOD      2
 UBDSV06 SAVING      EXT-OUTFLOW IN MODEL EXPERIMENTAL     PACKAGE SFR             CONNECTED TO MODEL EXPERIMENTAL     PACKAGE SFR              ON UNIT   1015 AT TIME STEP     23, STRESS PERIOD      2
 UBDSV06 SAVING          STORAGE IN MODEL EXPERIMENTAL     PACKAGE SFR             CONNECTED TO MODEL EXPERIMENTAL     PACKAGE SFR              ON UNIT   1015 AT TIME STEP     23, STRESS PERIOD      2

 HEAD WILL BE SAVED ON UNIT 1020 AT END OF TIME STEP   23, STRESS PERIOD    2

end timestep


start timestep kper="2" kstp="24" mode="normal"

 UBDSV1 SAVING           STO-SS ON UNIT   1019 AT TIME STEP     24, STRESS PERIOD      2
 UBDSV1 SAVING           STO-SY ON UNIT   1019 AT TIME STEP     24, STRESS PERIOD      2
 UBDSV1 SAVING     FLOW-JA-FACE ON UNIT   1019 AT TIME STEP     24, STRESS PERIOD      2
 UBDSV06 SAVING              GHB IN MODEL EXPERIMENTAL     PACKAGE EXPERIMENTAL    CONNECTED TO MODEL EXPERIMENTAL     PACKAGE GHB              ON UNIT   1019 AT TIME STEP     24, STRESS PERIOD      2
 UBDSV06 SAVING              RCH IN MODEL EXPERIMENTAL     PACKAGE EXPERIMENTAL    CONNECTED TO MODEL EXPERIMENTAL     PACKAGE RCH              ON UNIT   1019 AT TIME STEP     24, STRESS PERIOD      2
 UBDSV06 SAVING              SFR IN MODEL EXPERIMENTAL     PACKAGE EXPERIMENTAL    CONNECTED TO MODEL EXPERIMENTAL     PACKAGE SFR              ON UNIT   1019 AT TIME STEP     24, STRESS PERIOD      2
 UBDSV06 SAVING     FLOW-JA-FACE IN MODEL EXPERIMENTAL     PACKAGE SFR             CONNECTED TO MODEL EXPERIMENTAL     PACKAGE SFR              ON UNIT   1015 AT TIME STEP     24, STRESS PERIOD      2
 UBDSV06 SAVING              GWF IN MODEL EXPERIMENTAL     PACKAGE SFR             CONNECTED TO MODEL EXPERIMENTAL     PACKAGE EXPERIMENTAL     ON UNIT   1015 AT TIME STEP     24, STRESS PERIOD      2
 UBDSV06 SAVING         RAINFALL IN MODEL EXPERIMENTAL     PACKAGE SFR             CONNECTED TO MODEL EXPERIMENTAL     PACKAGE SFR              ON UNIT   1015 AT TIME STEP     24, STRESS PERIOD      2
 UBDSV06 SAVING      EVAPORATION IN MODEL EXPERIMENTAL     PACKAGE SFR             CONNECTED TO MODEL EXPERIMENTAL     PACKAGE SFR              ON UNIT   1015 AT TIME STEP     24, STRESS PERIOD      2
 UBDSV06 SAVING           RUNOFF IN MODEL EXPERIMENTAL     PACKAGE SFR             CONNECTED TO MODEL EXPERIMENTAL     PACKAGE SFR              ON UNIT   1015 AT TIME STEP     24, STRESS PERIOD      2
 UBDSV06 SAVING       EXT-INFLOW IN MODEL EXPERIMENTAL     PACKAGE SFR             CONNECTED TO MODEL EXPERIMENTAL     PACKAGE SFR              ON UNIT   1015 AT TIME STEP     24, STRESS PERIOD      2
 UBDSV06 SAVING      EXT-OUTFLOW IN MODEL EXPERIMENTAL     PACKAGE SFR             CONNECTED TO MODEL EXPERIMENTAL     PACKAGE SFR              ON UNIT   1015 AT TIME STEP     24, STRESS PERIOD      2
 UBDSV06 SAVING          STORAGE IN MODEL EXPERIMENTAL     PACKAGE SFR             CONNECTED TO MODEL EXPERIMENTAL     PACKAGE SFR              ON UNIT   1015 AT TIME STEP     24, STRESS PERIOD      2

 HEAD WILL BE SAVED ON UNIT 1020 AT END OF TIME STEP   24, STRESS PERIOD    2

end timestep


start timestep kper="2" kstp="25" mode="normal"

 UBDSV1 SAVING           STO-SS ON UNIT   1019 AT TIME STEP     25, STRESS PERIOD      2
 UBDSV1 SAVING           STO-SY ON UNIT   1019 AT TIME STEP     25, STRESS PERIOD      2
 UBDSV1 SAVING     FLOW-JA-FACE ON UNIT   1019 AT TIME STEP     25, STRESS PERIOD      2
 UBDSV06 SAVING              GHB IN MODEL EXPERIMENTAL     PACKAGE EXPERIMENTAL    CONNECTED TO MODEL EXPERIMENTAL     PACKAGE GHB              ON UNIT   1019 AT TIME STEP     25, STRESS PERIOD      2
 UBDSV06 SAVING              RCH IN MODEL EXPERIMENTAL     PACKAGE EXPERIMENTAL    CONNECTED TO MODEL EXPERIMENTAL     PACKAGE RCH              ON UNIT   1019 AT TIME STEP     25, STRESS PERIOD      2
 UBDSV06 SAVING              SFR IN MODEL EXPERIMENTAL     PACKAGE EXPERIMENTAL    CONNECTED TO MODEL EXPERIMENTAL     PACKAGE SFR              ON UNIT   1019 AT TIME STEP     25, STRESS PERIOD      2
 UBDSV06 SAVING     FLOW-JA-FACE IN MODEL EXPERIMENTAL     PACKAGE SFR             CONNECTED TO MODEL EXPERIMENTAL     PACKAGE SFR              ON UNIT   1015 AT TIME STEP     25, STRESS PERIOD      2
 UBDSV06 SAVING              GWF IN MODEL EXPERIMENTAL     PACKAGE SFR             CONNECTED TO MODEL EXPERIMENTAL     PACKAGE EXPERIMENTAL     ON UNIT   1015 AT TIME STEP     25, STRESS PERIOD      2
 UBDSV06 SAVING         RAINFALL IN MODEL EXPERIMENTAL     PACKAGE SFR             CONNECTED TO MODEL EXPERIMENTAL     PACKAGE SFR              ON UNIT   1015 AT TIME STEP     25, STRESS PERIOD      2
 UBDSV06 SAVING      EVAPORATION IN MODEL EXPERIMENTAL     PACKAGE SFR             CONNECTED TO MODEL EXPERIMENTAL     PACKAGE SFR              ON UNIT   1015 AT TIME STEP     25, STRESS PERIOD      2
 UBDSV06 SAVING           RUNOFF IN MODEL EXPERIMENTAL     PACKAGE SFR             CONNECTED TO MODEL EXPERIMENTAL     PACKAGE SFR              ON UNIT   1015 AT TIME STEP     25, STRESS PERIOD      2
 UBDSV06 SAVING       EXT-INFLOW IN MODEL EXPERIMENTAL     PACKAGE SFR             CONNECTED TO MODEL EXPERIMENTAL     PACKAGE SFR              ON UNIT   1015 AT TIME STEP     25, STRESS PERIOD      2
 UBDSV06 SAVING      EXT-OUTFLOW IN MODEL EXPERIMENTAL     PACKAGE SFR             CONNECTED TO MODEL EXPERIMENTAL     PACKAGE SFR              ON UNIT   1015 AT TIME STEP     25, STRESS PERIOD      2
 UBDSV06 SAVING          STORAGE IN MODEL EXPERIMENTAL     PACKAGE SFR             CONNECTED TO MODEL EXPERIMENTAL     PACKAGE SFR              ON UNIT   1015 AT TIME STEP     25, STRESS PERIOD      2

 HEAD WILL BE SAVED ON UNIT 1020 AT END OF TIME STEP   25, STRESS PERIOD    2

end timestep


start timestep kper="2" kstp="26" mode="normal"

 UBDSV1 SAVING           STO-SS ON UNIT   1019 AT TIME STEP     26, STRESS PERIOD      2
 UBDSV1 SAVING           STO-SY ON UNIT   1019 AT TIME STEP     26, STRESS PERIOD      2
 UBDSV1 SAVING     FLOW-JA-FACE ON UNIT   1019 AT TIME STEP     26, STRESS PERIOD      2
 UBDSV06 SAVING              GHB IN MODEL EXPERIMENTAL     PACKAGE EXPERIMENTAL    CONNECTED TO MODEL EXPERIMENTAL     PACKAGE GHB              ON UNIT   1019 AT TIME STEP     26, STRESS PERIOD      2
 UBDSV06 SAVING              RCH IN MODEL EXPERIMENTAL     PACKAGE EXPERIMENTAL    CONNECTED TO MODEL EXPERIMENTAL     PACKAGE RCH              ON UNIT   1019 AT TIME STEP     26, STRESS PERIOD      2
 UBDSV06 SAVING              SFR IN MODEL EXPERIMENTAL     PACKAGE EXPERIMENTAL    CONNECTED TO MODEL EXPERIMENTAL     PACKAGE SFR              ON UNIT   1019 AT TIME STEP     26, STRESS PERIOD      2
 UBDSV06 SAVING     FLOW-JA-FACE IN MODEL EXPERIMENTAL     PACKAGE SFR             CONNECTED TO MODEL EXPERIMENTAL     PACKAGE SFR              ON UNIT   1015 AT TIME STEP     26, STRESS PERIOD      2
 UBDSV06 SAVING              GWF IN MODEL EXPERIMENTAL     PACKAGE SFR             CONNECTED TO MODEL EXPERIMENTAL     PACKAGE EXPERIMENTAL     ON UNIT   1015 AT TIME STEP     26, STRESS PERIOD      2
 UBDSV06 SAVING         RAINFALL IN MODEL EXPERIMENTAL     PACKAGE SFR             CONNECTED TO MODEL EXPERIMENTAL     PACKAGE SFR              ON UNIT   1015 AT TIME STEP     26, STRESS PERIOD      2
 UBDSV06 SAVING      EVAPORATION IN MODEL EXPERIMENTAL     PACKAGE SFR             CONNECTED TO MODEL EXPERIMENTAL     PACKAGE SFR              ON UNIT   1015 AT TIME STEP     26, STRESS PERIOD      2
 UBDSV06 SAVING           RUNOFF IN MODEL EXPERIMENTAL     PACKAGE SFR             CONNECTED TO MODEL EXPERIMENTAL     PACKAGE SFR              ON UNIT   1015 AT TIME STEP     26, STRESS PERIOD      2
 UBDSV06 SAVING       EXT-INFLOW IN MODEL EXPERIMENTAL     PACKAGE SFR             CONNECTED TO MODEL EXPERIMENTAL     PACKAGE SFR              ON UNIT   1015 AT TIME STEP     26, STRESS PERIOD      2
 UBDSV06 SAVING      EXT-OUTFLOW IN MODEL EXPERIMENTAL     PACKAGE SFR             CONNECTED TO MODEL EXPERIMENTAL     PACKAGE SFR              ON UNIT   1015 AT TIME STEP     26, STRESS PERIOD      2
 UBDSV06 SAVING          STORAGE IN MODEL EXPERIMENTAL     PACKAGE SFR             CONNECTED TO MODEL EXPERIMENTAL     PACKAGE SFR              ON UNIT   1015 AT TIME STEP     26, STRESS PERIOD      2

 HEAD WILL BE SAVED ON UNIT 1020 AT END OF TIME STEP   26, STRESS PERIOD    2

end timestep


start timestep kper="2" kstp="27" mode="normal"

 UBDSV1 SAVING           STO-SS ON UNIT   1019 AT TIME STEP     27, STRESS PERIOD      2
 UBDSV1 SAVING           STO-SY ON UNIT   1019 AT TIME STEP     27, STRESS PERIOD      2
 UBDSV1 SAVING     FLOW-JA-FACE ON UNIT   1019 AT TIME STEP     27, STRESS PERIOD      2
 UBDSV06 SAVING              GHB IN MODEL EXPERIMENTAL     PACKAGE EXPERIMENTAL    CONNECTED TO MODEL EXPERIMENTAL     PACKAGE GHB              ON UNIT   1019 AT TIME STEP     27, STRESS PERIOD      2
 UBDSV06 SAVING              RCH IN MODEL EXPERIMENTAL     PACKAGE EXPERIMENTAL    CONNECTED TO MODEL EXPERIMENTAL     PACKAGE RCH              ON UNIT   1019 AT TIME STEP     27, STRESS PERIOD      2
 UBDSV06 SAVING              SFR IN MODEL EXPERIMENTAL     PACKAGE EXPERIMENTAL    CONNECTED TO MODEL EXPERIMENTAL     PACKAGE SFR              ON UNIT   1019 AT TIME STEP     27, STRESS PERIOD      2
 UBDSV06 SAVING     FLOW-JA-FACE IN MODEL EXPERIMENTAL     PACKAGE SFR             CONNECTED TO MODEL EXPERIMENTAL     PACKAGE SFR              ON UNIT   1015 AT TIME STEP     27, STRESS PERIOD      2
 UBDSV06 SAVING              GWF IN MODEL EXPERIMENTAL     PACKAGE SFR             CONNECTED TO MODEL EXPERIMENTAL     PACKAGE EXPERIMENTAL     ON UNIT   1015 AT TIME STEP     27, STRESS PERIOD      2
 UBDSV06 SAVING         RAINFALL IN MODEL EXPERIMENTAL     PACKAGE SFR             CONNECTED TO MODEL EXPERIMENTAL     PACKAGE SFR              ON UNIT   1015 AT TIME STEP     27, STRESS PERIOD      2
 UBDSV06 SAVING      EVAPORATION IN MODEL EXPERIMENTAL     PACKAGE SFR             CONNECTED TO MODEL EXPERIMENTAL     PACKAGE SFR              ON UNIT   1015 AT TIME STEP     27, STRESS PERIOD      2
 UBDSV06 SAVING           RUNOFF IN MODEL EXPERIMENTAL     PACKAGE SFR             CONNECTED TO MODEL EXPERIMENTAL     PACKAGE SFR              ON UNIT   1015 AT TIME STEP     27, STRESS PERIOD      2
 UBDSV06 SAVING       EXT-INFLOW IN MODEL EXPERIMENTAL     PACKAGE SFR             CONNECTED TO MODEL EXPERIMENTAL     PACKAGE SFR              ON UNIT   1015 AT TIME STEP     27, STRESS PERIOD      2
 UBDSV06 SAVING      EXT-OUTFLOW IN MODEL EXPERIMENTAL     PACKAGE SFR             CONNECTED TO MODEL EXPERIMENTAL     PACKAGE SFR              ON UNIT   1015 AT TIME STEP     27, STRESS PERIOD      2
 UBDSV06 SAVING          STORAGE IN MODEL EXPERIMENTAL     PACKAGE SFR             CONNECTED TO MODEL EXPERIMENTAL     PACKAGE SFR              ON UNIT   1015 AT TIME STEP     27, STRESS PERIOD      2

 HEAD WILL BE SAVED ON UNIT 1020 AT END OF TIME STEP   27, STRESS PERIOD    2

end timestep


start timestep kper="2" kstp="28" mode="normal"

 UBDSV1 SAVING           STO-SS ON UNIT   1019 AT TIME STEP     28, STRESS PERIOD      2
 UBDSV1 SAVING           STO-SY ON UNIT   1019 AT TIME STEP     28, STRESS PERIOD      2
 UBDSV1 SAVING     FLOW-JA-FACE ON UNIT   1019 AT TIME STEP     28, STRESS PERIOD      2
 UBDSV06 SAVING              GHB IN MODEL EXPERIMENTAL     PACKAGE EXPERIMENTAL    CONNECTED TO MODEL EXPERIMENTAL     PACKAGE GHB              ON UNIT   1019 AT TIME STEP     28, STRESS PERIOD      2
 UBDSV06 SAVING              RCH IN MODEL EXPERIMENTAL     PACKAGE EXPERIMENTAL    CONNECTED TO MODEL EXPERIMENTAL     PACKAGE RCH              ON UNIT   1019 AT TIME STEP     28, STRESS PERIOD      2
 UBDSV06 SAVING              SFR IN MODEL EXPERIMENTAL     PACKAGE EXPERIMENTAL    CONNECTED TO MODEL EXPERIMENTAL     PACKAGE SFR              ON UNIT   1019 AT TIME STEP     28, STRESS PERIOD      2
 UBDSV06 SAVING     FLOW-JA-FACE IN MODEL EXPERIMENTAL     PACKAGE SFR             CONNECTED TO MODEL EXPERIMENTAL     PACKAGE SFR              ON UNIT   1015 AT TIME STEP     28, STRESS PERIOD      2
 UBDSV06 SAVING              GWF IN MODEL EXPERIMENTAL     PACKAGE SFR             CONNECTED TO MODEL EXPERIMENTAL     PACKAGE EXPERIMENTAL     ON UNIT   1015 AT TIME STEP     28, STRESS PERIOD      2
 UBDSV06 SAVING         RAINFALL IN MODEL EXPERIMENTAL     PACKAGE SFR             CONNECTED TO MODEL EXPERIMENTAL     PACKAGE SFR              ON UNIT   1015 AT TIME STEP     28, STRESS PERIOD      2
 UBDSV06 SAVING      EVAPORATION IN MODEL EXPERIMENTAL     PACKAGE SFR             CONNECTED TO MODEL EXPERIMENTAL     PACKAGE SFR              ON UNIT   1015 AT TIME STEP     28, STRESS PERIOD      2
 UBDSV06 SAVING           RUNOFF IN MODEL EXPERIMENTAL     PACKAGE SFR             CONNECTED TO MODEL EXPERIMENTAL     PACKAGE SFR              ON UNIT   1015 AT TIME STEP     28, STRESS PERIOD      2
 UBDSV06 SAVING       EXT-INFLOW IN MODEL EXPERIMENTAL     PACKAGE SFR             CONNECTED TO MODEL EXPERIMENTAL     PACKAGE SFR              ON UNIT   1015 AT TIME STEP     28, STRESS PERIOD      2
 UBDSV06 SAVING      EXT-OUTFLOW IN MODEL EXPERIMENTAL     PACKAGE SFR             CONNECTED TO MODEL EXPERIMENTAL     PACKAGE SFR              ON UNIT   1015 AT TIME STEP     28, STRESS PERIOD      2
 UBDSV06 SAVING          STORAGE IN MODEL EXPERIMENTAL     PACKAGE SFR             CONNECTED TO MODEL EXPERIMENTAL     PACKAGE SFR              ON UNIT   1015 AT TIME STEP     28, STRESS PERIOD      2

 HEAD WILL BE SAVED ON UNIT 1020 AT END OF TIME STEP   28, STRESS PERIOD    2

end timestep


start timestep kper="2" kstp="29" mode="normal"

 UBDSV1 SAVING           STO-SS ON UNIT   1019 AT TIME STEP     29, STRESS PERIOD      2
 UBDSV1 SAVING           STO-SY ON UNIT   1019 AT TIME STEP     29, STRESS PERIOD      2
 UBDSV1 SAVING     FLOW-JA-FACE ON UNIT   1019 AT TIME STEP     29, STRESS PERIOD      2
 UBDSV06 SAVING              GHB IN MODEL EXPERIMENTAL     PACKAGE EXPERIMENTAL    CONNECTED TO MODEL EXPERIMENTAL     PACKAGE GHB              ON UNIT   1019 AT TIME STEP     29, STRESS PERIOD      2
 UBDSV06 SAVING              RCH IN MODEL EXPERIMENTAL     PACKAGE EXPERIMENTAL    CONNECTED TO MODEL EXPERIMENTAL     PACKAGE RCH              ON UNIT   1019 AT TIME STEP     29, STRESS PERIOD      2
 UBDSV06 SAVING              SFR IN MODEL EXPERIMENTAL     PACKAGE EXPERIMENTAL    CONNECTED TO MODEL EXPERIMENTAL     PACKAGE SFR              ON UNIT   1019 AT TIME STEP     29, STRESS PERIOD      2
 UBDSV06 SAVING     FLOW-JA-FACE IN MODEL EXPERIMENTAL     PACKAGE SFR             CONNECTED TO MODEL EXPERIMENTAL     PACKAGE SFR              ON UNIT   1015 AT TIME STEP     29, STRESS PERIOD      2
 UBDSV06 SAVING              GWF IN MODEL EXPERIMENTAL     PACKAGE SFR             CONNECTED TO MODEL EXPERIMENTAL     PACKAGE EXPERIMENTAL     ON UNIT   1015 AT TIME STEP     29, STRESS PERIOD      2
 UBDSV06 SAVING         RAINFALL IN MODEL EXPERIMENTAL     PACKAGE SFR             CONNECTED TO MODEL EXPERIMENTAL     PACKAGE SFR              ON UNIT   1015 AT TIME STEP     29, STRESS PERIOD      2
 UBDSV06 SAVING      EVAPORATION IN MODEL EXPERIMENTAL     PACKAGE SFR             CONNECTED TO MODEL EXPERIMENTAL     PACKAGE SFR              ON UNIT   1015 AT TIME STEP     29, STRESS PERIOD      2
 UBDSV06 SAVING           RUNOFF IN MODEL EXPERIMENTAL     PACKAGE SFR             CONNECTED TO MODEL EXPERIMENTAL     PACKAGE SFR              ON UNIT   1015 AT TIME STEP     29, STRESS PERIOD      2
 UBDSV06 SAVING       EXT-INFLOW IN MODEL EXPERIMENTAL     PACKAGE SFR             CONNECTED TO MODEL EXPERIMENTAL     PACKAGE SFR              ON UNIT   1015 AT TIME STEP     29, STRESS PERIOD      2
 UBDSV06 SAVING      EXT-OUTFLOW IN MODEL EXPERIMENTAL     PACKAGE SFR             CONNECTED TO MODEL EXPERIMENTAL     PACKAGE SFR              ON UNIT   1015 AT TIME STEP     29, STRESS PERIOD      2
 UBDSV06 SAVING          STORAGE IN MODEL EXPERIMENTAL     PACKAGE SFR             CONNECTED TO MODEL EXPERIMENTAL     PACKAGE SFR              ON UNIT   1015 AT TIME STEP     29, STRESS PERIOD      2

 HEAD WILL BE SAVED ON UNIT 1020 AT END OF TIME STEP   29, STRESS PERIOD    2

end timestep


start timestep kper="2" kstp="30" mode="normal"

 UBDSV1 SAVING           STO-SS ON UNIT   1019 AT TIME STEP     30, STRESS PERIOD      2
 UBDSV1 SAVING           STO-SY ON UNIT   1019 AT TIME STEP     30, STRESS PERIOD      2
 UBDSV1 SAVING     FLOW-JA-FACE ON UNIT   1019 AT TIME STEP     30, STRESS PERIOD      2
 UBDSV06 SAVING              GHB IN MODEL EXPERIMENTAL     PACKAGE EXPERIMENTAL    CONNECTED TO MODEL EXPERIMENTAL     PACKAGE GHB              ON UNIT   1019 AT TIME STEP     30, STRESS PERIOD      2
 UBDSV06 SAVING              RCH IN MODEL EXPERIMENTAL     PACKAGE EXPERIMENTAL    CONNECTED TO MODEL EXPERIMENTAL     PACKAGE RCH              ON UNIT   1019 AT TIME STEP     30, STRESS PERIOD      2
 UBDSV06 SAVING              SFR IN MODEL EXPERIMENTAL     PACKAGE EXPERIMENTAL    CONNECTED TO MODEL EXPERIMENTAL     PACKAGE SFR              ON UNIT   1019 AT TIME STEP     30, STRESS PERIOD      2
 UBDSV06 SAVING     FLOW-JA-FACE IN MODEL EXPERIMENTAL     PACKAGE SFR             CONNECTED TO MODEL EXPERIMENTAL     PACKAGE SFR              ON UNIT   1015 AT TIME STEP     30, STRESS PERIOD      2
 UBDSV06 SAVING              GWF IN MODEL EXPERIMENTAL     PACKAGE SFR             CONNECTED TO MODEL EXPERIMENTAL     PACKAGE EXPERIMENTAL     ON UNIT   1015 AT TIME STEP     30, STRESS PERIOD      2
 UBDSV06 SAVING         RAINFALL IN MODEL EXPERIMENTAL     PACKAGE SFR             CONNECTED TO MODEL EXPERIMENTAL     PACKAGE SFR              ON UNIT   1015 AT TIME STEP     30, STRESS PERIOD      2
 UBDSV06 SAVING      EVAPORATION IN MODEL EXPERIMENTAL     PACKAGE SFR             CONNECTED TO MODEL EXPERIMENTAL     PACKAGE SFR              ON UNIT   1015 AT TIME STEP     30, STRESS PERIOD      2
 UBDSV06 SAVING           RUNOFF IN MODEL EXPERIMENTAL     PACKAGE SFR             CONNECTED TO MODEL EXPERIMENTAL     PACKAGE SFR              ON UNIT   1015 AT TIME STEP     30, STRESS PERIOD      2
 UBDSV06 SAVING       EXT-INFLOW IN MODEL EXPERIMENTAL     PACKAGE SFR             CONNECTED TO MODEL EXPERIMENTAL     PACKAGE SFR              ON UNIT   1015 AT TIME STEP     30, STRESS PERIOD      2
 UBDSV06 SAVING      EXT-OUTFLOW IN MODEL EXPERIMENTAL     PACKAGE SFR             CONNECTED TO MODEL EXPERIMENTAL     PACKAGE SFR              ON UNIT   1015 AT TIME STEP     30, STRESS PERIOD      2
 UBDSV06 SAVING          STORAGE IN MODEL EXPERIMENTAL     PACKAGE SFR             CONNECTED TO MODEL EXPERIMENTAL     PACKAGE SFR              ON UNIT   1015 AT TIME STEP     30, STRESS PERIOD      2

 HEAD WILL BE SAVED ON UNIT 1020 AT END OF TIME STEP   30, STRESS PERIOD    2

end timestep


start timestep kper="2" kstp="31" mode="normal"

 UBDSV1 SAVING           STO-SS ON UNIT   1019 AT TIME STEP     31, STRESS PERIOD      2
 UBDSV1 SAVING           STO-SY ON UNIT   1019 AT TIME STEP     31, STRESS PERIOD      2
 UBDSV1 SAVING     FLOW-JA-FACE ON UNIT   1019 AT TIME STEP     31, STRESS PERIOD      2
 UBDSV06 SAVING              GHB IN MODEL EXPERIMENTAL     PACKAGE EXPERIMENTAL    CONNECTED TO MODEL EXPERIMENTAL     PACKAGE GHB              ON UNIT   1019 AT TIME STEP     31, STRESS PERIOD      2
 UBDSV06 SAVING              RCH IN MODEL EXPERIMENTAL     PACKAGE EXPERIMENTAL    CONNECTED TO MODEL EXPERIMENTAL     PACKAGE RCH              ON UNIT   1019 AT TIME STEP     31, STRESS PERIOD      2
 UBDSV06 SAVING              SFR IN MODEL EXPERIMENTAL     PACKAGE EXPERIMENTAL    CONNECTED TO MODEL EXPERIMENTAL     PACKAGE SFR              ON UNIT   1019 AT TIME STEP     31, STRESS PERIOD      2
 UBDSV06 SAVING     FLOW-JA-FACE IN MODEL EXPERIMENTAL     PACKAGE SFR             CONNECTED TO MODEL EXPERIMENTAL     PACKAGE SFR              ON UNIT   1015 AT TIME STEP     31, STRESS PERIOD      2
 UBDSV06 SAVING              GWF IN MODEL EXPERIMENTAL     PACKAGE SFR             CONNECTED TO MODEL EXPERIMENTAL     PACKAGE EXPERIMENTAL     ON UNIT   1015 AT TIME STEP     31, STRESS PERIOD      2
 UBDSV06 SAVING         RAINFALL IN MODEL EXPERIMENTAL     PACKAGE SFR             CONNECTED TO MODEL EXPERIMENTAL     PACKAGE SFR              ON UNIT   1015 AT TIME STEP     31, STRESS PERIOD      2
 UBDSV06 SAVING      EVAPORATION IN MODEL EXPERIMENTAL     PACKAGE SFR             CONNECTED TO MODEL EXPERIMENTAL     PACKAGE SFR              ON UNIT   1015 AT TIME STEP     31, STRESS PERIOD      2
 UBDSV06 SAVING           RUNOFF IN MODEL EXPERIMENTAL     PACKAGE SFR             CONNECTED TO MODEL EXPERIMENTAL     PACKAGE SFR              ON UNIT   1015 AT TIME STEP     31, STRESS PERIOD      2
 UBDSV06 SAVING       EXT-INFLOW IN MODEL EXPERIMENTAL     PACKAGE SFR             CONNECTED TO MODEL EXPERIMENTAL     PACKAGE SFR              ON UNIT   1015 AT TIME STEP     31, STRESS PERIOD      2
 UBDSV06 SAVING      EXT-OUTFLOW IN MODEL EXPERIMENTAL     PACKAGE SFR             CONNECTED TO MODEL EXPERIMENTAL     PACKAGE SFR              ON UNIT   1015 AT TIME STEP     31, STRESS PERIOD      2
 UBDSV06 SAVING          STORAGE IN MODEL EXPERIMENTAL     PACKAGE SFR             CONNECTED TO MODEL EXPERIMENTAL     PACKAGE SFR              ON UNIT   1015 AT TIME STEP     31, STRESS PERIOD      2

 HEAD WILL BE SAVED ON UNIT 1020 AT END OF TIME STEP   31, STRESS PERIOD    2

end timestep


start timestep kper="2" kstp="32" mode="normal"

 UBDSV1 SAVING           STO-SS ON UNIT   1019 AT TIME STEP     32, STRESS PERIOD      2
 UBDSV1 SAVING           STO-SY ON UNIT   1019 AT TIME STEP     32, STRESS PERIOD      2
 UBDSV1 SAVING     FLOW-JA-FACE ON UNIT   1019 AT TIME STEP     32, STRESS PERIOD      2
 UBDSV06 SAVING              GHB IN MODEL EXPERIMENTAL     PACKAGE EXPERIMENTAL    CONNECTED TO MODEL EXPERIMENTAL     PACKAGE GHB              ON UNIT   1019 AT TIME STEP     32, STRESS PERIOD      2
 UBDSV06 SAVING              RCH IN MODEL EXPERIMENTAL     PACKAGE EXPERIMENTAL    CONNECTED TO MODEL EXPERIMENTAL     PACKAGE RCH              ON UNIT   1019 AT TIME STEP     32, STRESS PERIOD      2
 UBDSV06 SAVING              SFR IN MODEL EXPERIMENTAL     PACKAGE EXPERIMENTAL    CONNECTED TO MODEL EXPERIMENTAL     PACKAGE SFR              ON UNIT   1019 AT TIME STEP     32, STRESS PERIOD      2
 UBDSV06 SAVING     FLOW-JA-FACE IN MODEL EXPERIMENTAL     PACKAGE SFR             CONNECTED TO MODEL EXPERIMENTAL     PACKAGE SFR              ON UNIT   1015 AT TIME STEP     32, STRESS PERIOD      2
 UBDSV06 SAVING              GWF IN MODEL EXPERIMENTAL     PACKAGE SFR             CONNECTED TO MODEL EXPERIMENTAL     PACKAGE EXPERIMENTAL     ON UNIT   1015 AT TIME STEP     32, STRESS PERIOD      2
 UBDSV06 SAVING         RAINFALL IN MODEL EXPERIMENTAL     PACKAGE SFR             CONNECTED TO MODEL EXPERIMENTAL     PACKAGE SFR              ON UNIT   1015 AT TIME STEP     32, STRESS PERIOD      2
 UBDSV06 SAVING      EVAPORATION IN MODEL EXPERIMENTAL     PACKAGE SFR             CONNECTED TO MODEL EXPERIMENTAL     PACKAGE SFR              ON UNIT   1015 AT TIME STEP     32, STRESS PERIOD      2
 UBDSV06 SAVING           RUNOFF IN MODEL EXPERIMENTAL     PACKAGE SFR             CONNECTED TO MODEL EXPERIMENTAL     PACKAGE SFR              ON UNIT   1015 AT TIME STEP     32, STRESS PERIOD      2
 UBDSV06 SAVING       EXT-INFLOW IN MODEL EXPERIMENTAL     PACKAGE SFR             CONNECTED TO MODEL EXPERIMENTAL     PACKAGE SFR              ON UNIT   1015 AT TIME STEP     32, STRESS PERIOD      2
 UBDSV06 SAVING      EXT-OUTFLOW IN MODEL EXPERIMENTAL     PACKAGE SFR             CONNECTED TO MODEL EXPERIMENTAL     PACKAGE SFR              ON UNIT   1015 AT TIME STEP     32, STRESS PERIOD      2
 UBDSV06 SAVING          STORAGE IN MODEL EXPERIMENTAL     PACKAGE SFR             CONNECTED TO MODEL EXPERIMENTAL     PACKAGE SFR              ON UNIT   1015 AT TIME STEP     32, STRESS PERIOD      2

 HEAD WILL BE SAVED ON UNIT 1020 AT END OF TIME STEP   32, STRESS PERIOD    2

end timestep


start timestep kper="2" kstp="33" mode="normal"

 UBDSV1 SAVING           STO-SS ON UNIT   1019 AT TIME STEP     33, STRESS PERIOD      2
 UBDSV1 SAVING           STO-SY ON UNIT   1019 AT TIME STEP     33, STRESS PERIOD      2
 UBDSV1 SAVING     FLOW-JA-FACE ON UNIT   1019 AT TIME STEP     33, STRESS PERIOD      2
 UBDSV06 SAVING              GHB IN MODEL EXPERIMENTAL     PACKAGE EXPERIMENTAL    CONNECTED TO MODEL EXPERIMENTAL     PACKAGE GHB              ON UNIT   1019 AT TIME STEP     33, STRESS PERIOD      2
 UBDSV06 SAVING              RCH IN MODEL EXPERIMENTAL     PACKAGE EXPERIMENTAL    CONNECTED TO MODEL EXPERIMENTAL     PACKAGE RCH              ON UNIT   1019 AT TIME STEP     33, STRESS PERIOD      2
 UBDSV06 SAVING              SFR IN MODEL EXPERIMENTAL     PACKAGE EXPERIMENTAL    CONNECTED TO MODEL EXPERIMENTAL     PACKAGE SFR              ON UNIT   1019 AT TIME STEP     33, STRESS PERIOD      2
 UBDSV06 SAVING     FLOW-JA-FACE IN MODEL EXPERIMENTAL     PACKAGE SFR             CONNECTED TO MODEL EXPERIMENTAL     PACKAGE SFR              ON UNIT   1015 AT TIME STEP     33, STRESS PERIOD      2
 UBDSV06 SAVING              GWF IN MODEL EXPERIMENTAL     PACKAGE SFR             CONNECTED TO MODEL EXPERIMENTAL     PACKAGE EXPERIMENTAL     ON UNIT   1015 AT TIME STEP     33, STRESS PERIOD      2
 UBDSV06 SAVING         RAINFALL IN MODEL EXPERIMENTAL     PACKAGE SFR             CONNECTED TO MODEL EXPERIMENTAL     PACKAGE SFR              ON UNIT   1015 AT TIME STEP     33, STRESS PERIOD      2
 UBDSV06 SAVING      EVAPORATION IN MODEL EXPERIMENTAL     PACKAGE SFR             CONNECTED TO MODEL EXPERIMENTAL     PACKAGE SFR              ON UNIT   1015 AT TIME STEP     33, STRESS PERIOD      2
 UBDSV06 SAVING           RUNOFF IN MODEL EXPERIMENTAL     PACKAGE SFR             CONNECTED TO MODEL EXPERIMENTAL     PACKAGE SFR              ON UNIT   1015 AT TIME STEP     33, STRESS PERIOD      2
 UBDSV06 SAVING       EXT-INFLOW IN MODEL EXPERIMENTAL     PACKAGE SFR             CONNECTED TO MODEL EXPERIMENTAL     PACKAGE SFR              ON UNIT   1015 AT TIME STEP     33, STRESS PERIOD      2
 UBDSV06 SAVING      EXT-OUTFLOW IN MODEL EXPERIMENTAL     PACKAGE SFR             CONNECTED TO MODEL EXPERIMENTAL     PACKAGE SFR              ON UNIT   1015 AT TIME STEP     33, STRESS PERIOD      2
 UBDSV06 SAVING          STORAGE IN MODEL EXPERIMENTAL     PACKAGE SFR             CONNECTED TO MODEL EXPERIMENTAL     PACKAGE SFR              ON UNIT   1015 AT TIME STEP     33, STRESS PERIOD      2

 HEAD WILL BE SAVED ON UNIT 1020 AT END OF TIME STEP   33, STRESS PERIOD    2

end timestep


start timestep kper="2" kstp="34" mode="normal"

 UBDSV1 SAVING           STO-SS ON UNIT   1019 AT TIME STEP     34, STRESS PERIOD      2
 UBDSV1 SAVING           STO-SY ON UNIT   1019 AT TIME STEP     34, STRESS PERIOD      2
 UBDSV1 SAVING     FLOW-JA-FACE ON UNIT   1019 AT TIME STEP     34, STRESS PERIOD      2
 UBDSV06 SAVING              GHB IN MODEL EXPERIMENTAL     PACKAGE EXPERIMENTAL    CONNECTED TO MODEL EXPERIMENTAL     PACKAGE GHB              ON UNIT   1019 AT TIME STEP     34, STRESS PERIOD      2
 UBDSV06 SAVING              RCH IN MODEL EXPERIMENTAL     PACKAGE EXPERIMENTAL    CONNECTED TO MODEL EXPERIMENTAL     PACKAGE RCH              ON UNIT   1019 AT TIME STEP     34, STRESS PERIOD      2
 UBDSV06 SAVING              SFR IN MODEL EXPERIMENTAL     PACKAGE EXPERIMENTAL    CONNECTED TO MODEL EXPERIMENTAL     PACKAGE SFR              ON UNIT   1019 AT TIME STEP     34, STRESS PERIOD      2
 UBDSV06 SAVING     FLOW-JA-FACE IN MODEL EXPERIMENTAL     PACKAGE SFR             CONNECTED TO MODEL EXPERIMENTAL     PACKAGE SFR              ON UNIT   1015 AT TIME STEP     34, STRESS PERIOD      2
 UBDSV06 SAVING              GWF IN MODEL EXPERIMENTAL     PACKAGE SFR             CONNECTED TO MODEL EXPERIMENTAL     PACKAGE EXPERIMENTAL     ON UNIT   1015 AT TIME STEP     34, STRESS PERIOD      2
 UBDSV06 SAVING         RAINFALL IN MODEL EXPERIMENTAL     PACKAGE SFR             CONNECTED TO MODEL EXPERIMENTAL     PACKAGE SFR              ON UNIT   1015 AT TIME STEP     34, STRESS PERIOD      2
 UBDSV06 SAVING      EVAPORATION IN MODEL EXPERIMENTAL     PACKAGE SFR             CONNECTED TO MODEL EXPERIMENTAL     PACKAGE SFR              ON UNIT   1015 AT TIME STEP     34, STRESS PERIOD      2
 UBDSV06 SAVING           RUNOFF IN MODEL EXPERIMENTAL     PACKAGE SFR             CONNECTED TO MODEL EXPERIMENTAL     PACKAGE SFR              ON UNIT   1015 AT TIME STEP     34, STRESS PERIOD      2
 UBDSV06 SAVING       EXT-INFLOW IN MODEL EXPERIMENTAL     PACKAGE SFR             CONNECTED TO MODEL EXPERIMENTAL     PACKAGE SFR              ON UNIT   1015 AT TIME STEP     34, STRESS PERIOD      2
 UBDSV06 SAVING      EXT-OUTFLOW IN MODEL EXPERIMENTAL     PACKAGE SFR             CONNECTED TO MODEL EXPERIMENTAL     PACKAGE SFR              ON UNIT   1015 AT TIME STEP     34, STRESS PERIOD      2
 UBDSV06 SAVING          STORAGE IN MODEL EXPERIMENTAL     PACKAGE SFR             CONNECTED TO MODEL EXPERIMENTAL     PACKAGE SFR              ON UNIT   1015 AT TIME STEP     34, STRESS PERIOD      2

 HEAD WILL BE SAVED ON UNIT 1020 AT END OF TIME STEP   34, STRESS PERIOD    2

end timestep


start timestep kper="2" kstp="35" mode="normal"

 UBDSV1 SAVING           STO-SS ON UNIT   1019 AT TIME STEP     35, STRESS PERIOD      2
 UBDSV1 SAVING           STO-SY ON UNIT   1019 AT TIME STEP     35, STRESS PERIOD      2
 UBDSV1 SAVING     FLOW-JA-FACE ON UNIT   1019 AT TIME STEP     35, STRESS PERIOD      2
 UBDSV06 SAVING              GHB IN MODEL EXPERIMENTAL     PACKAGE EXPERIMENTAL    CONNECTED TO MODEL EXPERIMENTAL     PACKAGE GHB              ON UNIT   1019 AT TIME STEP     35, STRESS PERIOD      2
 UBDSV06 SAVING              RCH IN MODEL EXPERIMENTAL     PACKAGE EXPERIMENTAL    CONNECTED TO MODEL EXPERIMENTAL     PACKAGE RCH              ON UNIT   1019 AT TIME STEP     35, STRESS PERIOD      2
 UBDSV06 SAVING              SFR IN MODEL EXPERIMENTAL     PACKAGE EXPERIMENTAL    CONNECTED TO MODEL EXPERIMENTAL     PACKAGE SFR              ON UNIT   1019 AT TIME STEP     35, STRESS PERIOD      2
 UBDSV06 SAVING     FLOW-JA-FACE IN MODEL EXPERIMENTAL     PACKAGE SFR             CONNECTED TO MODEL EXPERIMENTAL     PACKAGE SFR              ON UNIT   1015 AT TIME STEP     35, STRESS PERIOD      2
 UBDSV06 SAVING              GWF IN MODEL EXPERIMENTAL     PACKAGE SFR             CONNECTED TO MODEL EXPERIMENTAL     PACKAGE EXPERIMENTAL     ON UNIT   1015 AT TIME STEP     35, STRESS PERIOD      2
 UBDSV06 SAVING         RAINFALL IN MODEL EXPERIMENTAL     PACKAGE SFR             CONNECTED TO MODEL EXPERIMENTAL     PACKAGE SFR              ON UNIT   1015 AT TIME STEP     35, STRESS PERIOD      2
 UBDSV06 SAVING      EVAPORATION IN MODEL EXPERIMENTAL     PACKAGE SFR             CONNECTED TO MODEL EXPERIMENTAL     PACKAGE SFR              ON UNIT   1015 AT TIME STEP     35, STRESS PERIOD      2
 UBDSV06 SAVING           RUNOFF IN MODEL EXPERIMENTAL     PACKAGE SFR             CONNECTED TO MODEL EXPERIMENTAL     PACKAGE SFR              ON UNIT   1015 AT TIME STEP     35, STRESS PERIOD      2
 UBDSV06 SAVING       EXT-INFLOW IN MODEL EXPERIMENTAL     PACKAGE SFR             CONNECTED TO MODEL EXPERIMENTAL     PACKAGE SFR              ON UNIT   1015 AT TIME STEP     35, STRESS PERIOD      2
 UBDSV06 SAVING      EXT-OUTFLOW IN MODEL EXPERIMENTAL     PACKAGE SFR             CONNECTED TO MODEL EXPERIMENTAL     PACKAGE SFR              ON UNIT   1015 AT TIME STEP     35, STRESS PERIOD      2
 UBDSV06 SAVING          STORAGE IN MODEL EXPERIMENTAL     PACKAGE SFR             CONNECTED TO MODEL EXPERIMENTAL     PACKAGE SFR              ON UNIT   1015 AT TIME STEP     35, STRESS PERIOD      2

 HEAD WILL BE SAVED ON UNIT 1020 AT END OF TIME STEP   35, STRESS PERIOD    2

end timestep


start timestep kper="2" kstp="36" mode="normal"

 UBDSV1 SAVING           STO-SS ON UNIT   1019 AT TIME STEP     36, STRESS PERIOD      2
 UBDSV1 SAVING           STO-SY ON UNIT   1019 AT TIME STEP     36, STRESS PERIOD      2
 UBDSV1 SAVING     FLOW-JA-FACE ON UNIT   1019 AT TIME STEP     36, STRESS PERIOD      2
 UBDSV06 SAVING              GHB IN MODEL EXPERIMENTAL     PACKAGE EXPERIMENTAL    CONNECTED TO MODEL EXPERIMENTAL     PACKAGE GHB              ON UNIT   1019 AT TIME STEP     36, STRESS PERIOD      2
 UBDSV06 SAVING              RCH IN MODEL EXPERIMENTAL     PACKAGE EXPERIMENTAL    CONNECTED TO MODEL EXPERIMENTAL     PACKAGE RCH              ON UNIT   1019 AT TIME STEP     36, STRESS PERIOD      2
 UBDSV06 SAVING              SFR IN MODEL EXPERIMENTAL     PACKAGE EXPERIMENTAL    CONNECTED TO MODEL EXPERIMENTAL     PACKAGE SFR              ON UNIT   1019 AT TIME STEP     36, STRESS PERIOD      2
 UBDSV06 SAVING     FLOW-JA-FACE IN MODEL EXPERIMENTAL     PACKAGE SFR             CONNECTED TO MODEL EXPERIMENTAL     PACKAGE SFR              ON UNIT   1015 AT TIME STEP     36, STRESS PERIOD      2
 UBDSV06 SAVING              GWF IN MODEL EXPERIMENTAL     PACKAGE SFR             CONNECTED TO MODEL EXPERIMENTAL     PACKAGE EXPERIMENTAL     ON UNIT   1015 AT TIME STEP     36, STRESS PERIOD      2
 UBDSV06 SAVING         RAINFALL IN MODEL EXPERIMENTAL     PACKAGE SFR             CONNECTED TO MODEL EXPERIMENTAL     PACKAGE SFR              ON UNIT   1015 AT TIME STEP     36, STRESS PERIOD      2
 UBDSV06 SAVING      EVAPORATION IN MODEL EXPERIMENTAL     PACKAGE SFR             CONNECTED TO MODEL EXPERIMENTAL     PACKAGE SFR              ON UNIT   1015 AT TIME STEP     36, STRESS PERIOD      2
 UBDSV06 SAVING           RUNOFF IN MODEL EXPERIMENTAL     PACKAGE SFR             CONNECTED TO MODEL EXPERIMENTAL     PACKAGE SFR              ON UNIT   1015 AT TIME STEP     36, STRESS PERIOD      2
 UBDSV06 SAVING       EXT-INFLOW IN MODEL EXPERIMENTAL     PACKAGE SFR             CONNECTED TO MODEL EXPERIMENTAL     PACKAGE SFR              ON UNIT   1015 AT TIME STEP     36, STRESS PERIOD      2
 UBDSV06 SAVING      EXT-OUTFLOW IN MODEL EXPERIMENTAL     PACKAGE SFR             CONNECTED TO MODEL EXPERIMENTAL     PACKAGE SFR              ON UNIT   1015 AT TIME STEP     36, STRESS PERIOD      2
 UBDSV06 SAVING          STORAGE IN MODEL EXPERIMENTAL     PACKAGE SFR             CONNECTED TO MODEL EXPERIMENTAL     PACKAGE SFR              ON UNIT   1015 AT TIME STEP     36, STRESS PERIOD      2

 HEAD WILL BE SAVED ON UNIT 1020 AT END OF TIME STEP   36, STRESS PERIOD    2

end timestep


start timestep kper="2" kstp="37" mode="normal"

 UBDSV1 SAVING           STO-SS ON UNIT   1019 AT TIME STEP     37, STRESS PERIOD      2
 UBDSV1 SAVING           STO-SY ON UNIT   1019 AT TIME STEP     37, STRESS PERIOD      2
 UBDSV1 SAVING     FLOW-JA-FACE ON UNIT   1019 AT TIME STEP     37, STRESS PERIOD      2
 UBDSV06 SAVING              GHB IN MODEL EXPERIMENTAL     PACKAGE EXPERIMENTAL    CONNECTED TO MODEL EXPERIMENTAL     PACKAGE GHB              ON UNIT   1019 AT TIME STEP     37, STRESS PERIOD      2
 UBDSV06 SAVING              RCH IN MODEL EXPERIMENTAL     PACKAGE EXPERIMENTAL    CONNECTED TO MODEL EXPERIMENTAL     PACKAGE RCH              ON UNIT   1019 AT TIME STEP     37, STRESS PERIOD      2
 UBDSV06 SAVING              SFR IN MODEL EXPERIMENTAL     PACKAGE EXPERIMENTAL    CONNECTED TO MODEL EXPERIMENTAL     PACKAGE SFR              ON UNIT   1019 AT TIME STEP     37, STRESS PERIOD      2
 UBDSV06 SAVING     FLOW-JA-FACE IN MODEL EXPERIMENTAL     PACKAGE SFR             CONNECTED TO MODEL EXPERIMENTAL     PACKAGE SFR              ON UNIT   1015 AT TIME STEP     37, STRESS PERIOD      2
 UBDSV06 SAVING              GWF IN MODEL EXPERIMENTAL     PACKAGE SFR             CONNECTED TO MODEL EXPERIMENTAL     PACKAGE EXPERIMENTAL     ON UNIT   1015 AT TIME STEP     37, STRESS PERIOD      2
 UBDSV06 SAVING         RAINFALL IN MODEL EXPERIMENTAL     PACKAGE SFR             CONNECTED TO MODEL EXPERIMENTAL     PACKAGE SFR              ON UNIT   1015 AT TIME STEP     37, STRESS PERIOD      2
 UBDSV06 SAVING      EVAPORATION IN MODEL EXPERIMENTAL     PACKAGE SFR             CONNECTED TO MODEL EXPERIMENTAL     PACKAGE SFR              ON UNIT   1015 AT TIME STEP     37, STRESS PERIOD      2
 UBDSV06 SAVING           RUNOFF IN MODEL EXPERIMENTAL     PACKAGE SFR             CONNECTED TO MODEL EXPERIMENTAL     PACKAGE SFR              ON UNIT   1015 AT TIME STEP     37, STRESS PERIOD      2
 UBDSV06 SAVING       EXT-INFLOW IN MODEL EXPERIMENTAL     PACKAGE SFR             CONNECTED TO MODEL EXPERIMENTAL     PACKAGE SFR              ON UNIT   1015 AT TIME STEP     37, STRESS PERIOD      2
 UBDSV06 SAVING      EXT-OUTFLOW IN MODEL EXPERIMENTAL     PACKAGE SFR             CONNECTED TO MODEL EXPERIMENTAL     PACKAGE SFR              ON UNIT   1015 AT TIME STEP     37, STRESS PERIOD      2
 UBDSV06 SAVING          STORAGE IN MODEL EXPERIMENTAL     PACKAGE SFR             CONNECTED TO MODEL EXPERIMENTAL     PACKAGE SFR              ON UNIT   1015 AT TIME STEP     37, STRESS PERIOD      2

 HEAD WILL BE SAVED ON UNIT 1020 AT END OF TIME STEP   37, STRESS PERIOD    2

end timestep


start timestep kper="2" kstp="38" mode="normal"

 UBDSV1 SAVING           STO-SS ON UNIT   1019 AT TIME STEP     38, STRESS PERIOD      2
 UBDSV1 SAVING           STO-SY ON UNIT   1019 AT TIME STEP     38, STRESS PERIOD      2
 UBDSV1 SAVING     FLOW-JA-FACE ON UNIT   1019 AT TIME STEP     38, STRESS PERIOD      2
 UBDSV06 SAVING              GHB IN MODEL EXPERIMENTAL     PACKAGE EXPERIMENTAL    CONNECTED TO MODEL EXPERIMENTAL     PACKAGE GHB              ON UNIT   1019 AT TIME STEP     38, STRESS PERIOD      2
 UBDSV06 SAVING              RCH IN MODEL EXPERIMENTAL     PACKAGE EXPERIMENTAL    CONNECTED TO MODEL EXPERIMENTAL     PACKAGE RCH              ON UNIT   1019 AT TIME STEP     38, STRESS PERIOD      2
 UBDSV06 SAVING              SFR IN MODEL EXPERIMENTAL     PACKAGE EXPERIMENTAL    CONNECTED TO MODEL EXPERIMENTAL     PACKAGE SFR              ON UNIT   1019 AT TIME STEP     38, STRESS PERIOD      2
 UBDSV06 SAVING     FLOW-JA-FACE IN MODEL EXPERIMENTAL     PACKAGE SFR             CONNECTED TO MODEL EXPERIMENTAL     PACKAGE SFR              ON UNIT   1015 AT TIME STEP     38, STRESS PERIOD      2
 UBDSV06 SAVING              GWF IN MODEL EXPERIMENTAL     PACKAGE SFR             CONNECTED TO MODEL EXPERIMENTAL     PACKAGE EXPERIMENTAL     ON UNIT   1015 AT TIME STEP     38, STRESS PERIOD      2
 UBDSV06 SAVING         RAINFALL IN MODEL EXPERIMENTAL     PACKAGE SFR             CONNECTED TO MODEL EXPERIMENTAL     PACKAGE SFR              ON UNIT   1015 AT TIME STEP     38, STRESS PERIOD      2
 UBDSV06 SAVING      EVAPORATION IN MODEL EXPERIMENTAL     PACKAGE SFR             CONNECTED TO MODEL EXPERIMENTAL     PACKAGE SFR              ON UNIT   1015 AT TIME STEP     38, STRESS PERIOD      2
 UBDSV06 SAVING           RUNOFF IN MODEL EXPERIMENTAL     PACKAGE SFR             CONNECTED TO MODEL EXPERIMENTAL     PACKAGE SFR              ON UNIT   1015 AT TIME STEP     38, STRESS PERIOD      2
 UBDSV06 SAVING       EXT-INFLOW IN MODEL EXPERIMENTAL     PACKAGE SFR             CONNECTED TO MODEL EXPERIMENTAL     PACKAGE SFR              ON UNIT   1015 AT TIME STEP     38, STRESS PERIOD      2
 UBDSV06 SAVING      EXT-OUTFLOW IN MODEL EXPERIMENTAL     PACKAGE SFR             CONNECTED TO MODEL EXPERIMENTAL     PACKAGE SFR              ON UNIT   1015 AT TIME STEP     38, STRESS PERIOD      2
 UBDSV06 SAVING          STORAGE IN MODEL EXPERIMENTAL     PACKAGE SFR             CONNECTED TO MODEL EXPERIMENTAL     PACKAGE SFR              ON UNIT   1015 AT TIME STEP     38, STRESS PERIOD      2

 HEAD WILL BE SAVED ON UNIT 1020 AT END OF TIME STEP   38, STRESS PERIOD    2

end timestep


start timestep kper="2" kstp="39" mode="normal"

 UBDSV1 SAVING           STO-SS ON UNIT   1019 AT TIME STEP     39, STRESS PERIOD      2
 UBDSV1 SAVING           STO-SY ON UNIT   1019 AT TIME STEP     39, STRESS PERIOD      2
 UBDSV1 SAVING     FLOW-JA-FACE ON UNIT   1019 AT TIME STEP     39, STRESS PERIOD      2
 UBDSV06 SAVING              GHB IN MODEL EXPERIMENTAL     PACKAGE EXPERIMENTAL    CONNECTED TO MODEL EXPERIMENTAL     PACKAGE GHB              ON UNIT   1019 AT TIME STEP     39, STRESS PERIOD      2
 UBDSV06 SAVING              RCH IN MODEL EXPERIMENTAL     PACKAGE EXPERIMENTAL    CONNECTED TO MODEL EXPERIMENTAL     PACKAGE RCH              ON UNIT   1019 AT TIME STEP     39, STRESS PERIOD      2
 UBDSV06 SAVING              SFR IN MODEL EXPERIMENTAL     PACKAGE EXPERIMENTAL    CONNECTED TO MODEL EXPERIMENTAL     PACKAGE SFR              ON UNIT   1019 AT TIME STEP     39, STRESS PERIOD      2
 UBDSV06 SAVING     FLOW-JA-FACE IN MODEL EXPERIMENTAL     PACKAGE SFR             CONNECTED TO MODEL EXPERIMENTAL     PACKAGE SFR              ON UNIT   1015 AT TIME STEP     39, STRESS PERIOD      2
 UBDSV06 SAVING              GWF IN MODEL EXPERIMENTAL     PACKAGE SFR             CONNECTED TO MODEL EXPERIMENTAL     PACKAGE EXPERIMENTAL     ON UNIT   1015 AT TIME STEP     39, STRESS PERIOD      2
 UBDSV06 SAVING         RAINFALL IN MODEL EXPERIMENTAL     PACKAGE SFR             CONNECTED TO MODEL EXPERIMENTAL     PACKAGE SFR              ON UNIT   1015 AT TIME STEP     39, STRESS PERIOD      2
 UBDSV06 SAVING      EVAPORATION IN MODEL EXPERIMENTAL     PACKAGE SFR             CONNECTED TO MODEL EXPERIMENTAL     PACKAGE SFR              ON UNIT   1015 AT TIME STEP     39, STRESS PERIOD      2
 UBDSV06 SAVING           RUNOFF IN MODEL EXPERIMENTAL     PACKAGE SFR             CONNECTED TO MODEL EXPERIMENTAL     PACKAGE SFR              ON UNIT   1015 AT TIME STEP     39, STRESS PERIOD      2
 UBDSV06 SAVING       EXT-INFLOW IN MODEL EXPERIMENTAL     PACKAGE SFR             CONNECTED TO MODEL EXPERIMENTAL     PACKAGE SFR              ON UNIT   1015 AT TIME STEP     39, STRESS PERIOD      2
 UBDSV06 SAVING      EXT-OUTFLOW IN MODEL EXPERIMENTAL     PACKAGE SFR             CONNECTED TO MODEL EXPERIMENTAL     PACKAGE SFR              ON UNIT   1015 AT TIME STEP     39, STRESS PERIOD      2
 UBDSV06 SAVING          STORAGE IN MODEL EXPERIMENTAL     PACKAGE SFR             CONNECTED TO MODEL EXPERIMENTAL     PACKAGE SFR              ON UNIT   1015 AT TIME STEP     39, STRESS PERIOD      2

 HEAD WILL BE SAVED ON UNIT 1020 AT END OF TIME STEP   39, STRESS PERIOD    2

end timestep


start timestep kper="2" kstp="40" mode="normal"

 UBDSV1 SAVING           STO-SS ON UNIT   1019 AT TIME STEP     40, STRESS PERIOD      2
 UBDSV1 SAVING           STO-SY ON UNIT   1019 AT TIME STEP     40, STRESS PERIOD      2
 UBDSV1 SAVING     FLOW-JA-FACE ON UNIT   1019 AT TIME STEP     40, STRESS PERIOD      2
 UBDSV06 SAVING              GHB IN MODEL EXPERIMENTAL     PACKAGE EXPERIMENTAL    CONNECTED TO MODEL EXPERIMENTAL     PACKAGE GHB              ON UNIT   1019 AT TIME STEP     40, STRESS PERIOD      2
 UBDSV06 SAVING              RCH IN MODEL EXPERIMENTAL     PACKAGE EXPERIMENTAL    CONNECTED TO MODEL EXPERIMENTAL     PACKAGE RCH              ON UNIT   1019 AT TIME STEP     40, STRESS PERIOD      2
 UBDSV06 SAVING              SFR IN MODEL EXPERIMENTAL     PACKAGE EXPERIMENTAL    CONNECTED TO MODEL EXPERIMENTAL     PACKAGE SFR              ON UNIT   1019 AT TIME STEP     40, STRESS PERIOD      2
 UBDSV06 SAVING     FLOW-JA-FACE IN MODEL EXPERIMENTAL     PACKAGE SFR             CONNECTED TO MODEL EXPERIMENTAL     PACKAGE SFR              ON UNIT   1015 AT TIME STEP     40, STRESS PERIOD      2
 UBDSV06 SAVING              GWF IN MODEL EXPERIMENTAL     PACKAGE SFR             CONNECTED TO MODEL EXPERIMENTAL     PACKAGE EXPERIMENTAL     ON UNIT   1015 AT TIME STEP     40, STRESS PERIOD      2
 UBDSV06 SAVING         RAINFALL IN MODEL EXPERIMENTAL     PACKAGE SFR             CONNECTED TO MODEL EXPERIMENTAL     PACKAGE SFR              ON UNIT   1015 AT TIME STEP     40, STRESS PERIOD      2
 UBDSV06 SAVING      EVAPORATION IN MODEL EXPERIMENTAL     PACKAGE SFR             CONNECTED TO MODEL EXPERIMENTAL     PACKAGE SFR              ON UNIT   1015 AT TIME STEP     40, STRESS PERIOD      2
 UBDSV06 SAVING           RUNOFF IN MODEL EXPERIMENTAL     PACKAGE SFR             CONNECTED TO MODEL EXPERIMENTAL     PACKAGE SFR              ON UNIT   1015 AT TIME STEP     40, STRESS PERIOD      2
 UBDSV06 SAVING       EXT-INFLOW IN MODEL EXPERIMENTAL     PACKAGE SFR             CONNECTED TO MODEL EXPERIMENTAL     PACKAGE SFR              ON UNIT   1015 AT TIME STEP     40, STRESS PERIOD      2
 UBDSV06 SAVING      EXT-OUTFLOW IN MODEL EXPERIMENTAL     PACKAGE SFR             CONNECTED TO MODEL EXPERIMENTAL     PACKAGE SFR              ON UNIT   1015 AT TIME STEP     40, STRESS PERIOD      2
 UBDSV06 SAVING          STORAGE IN MODEL EXPERIMENTAL     PACKAGE SFR             CONNECTED TO MODEL EXPERIMENTAL     PACKAGE SFR              ON UNIT   1015 AT TIME STEP     40, STRESS PERIOD      2

 HEAD WILL BE SAVED ON UNIT 1020 AT END OF TIME STEP   40, STRESS PERIOD    2

end timestep


start timestep kper="2" kstp="41" mode="normal"

 UBDSV1 SAVING           STO-SS ON UNIT   1019 AT TIME STEP     41, STRESS PERIOD      2
 UBDSV1 SAVING           STO-SY ON UNIT   1019 AT TIME STEP     41, STRESS PERIOD      2
 UBDSV1 SAVING     FLOW-JA-FACE ON UNIT   1019 AT TIME STEP     41, STRESS PERIOD      2
 UBDSV06 SAVING              GHB IN MODEL EXPERIMENTAL     PACKAGE EXPERIMENTAL    CONNECTED TO MODEL EXPERIMENTAL     PACKAGE GHB              ON UNIT   1019 AT TIME STEP     41, STRESS PERIOD      2
 UBDSV06 SAVING              RCH IN MODEL EXPERIMENTAL     PACKAGE EXPERIMENTAL    CONNECTED TO MODEL EXPERIMENTAL     PACKAGE RCH              ON UNIT   1019 AT TIME STEP     41, STRESS PERIOD      2
 UBDSV06 SAVING              SFR IN MODEL EXPERIMENTAL     PACKAGE EXPERIMENTAL    CONNECTED TO MODEL EXPERIMENTAL     PACKAGE SFR              ON UNIT   1019 AT TIME STEP     41, STRESS PERIOD      2
 UBDSV06 SAVING     FLOW-JA-FACE IN MODEL EXPERIMENTAL     PACKAGE SFR             CONNECTED TO MODEL EXPERIMENTAL     PACKAGE SFR              ON UNIT   1015 AT TIME STEP     41, STRESS PERIOD      2
 UBDSV06 SAVING              GWF IN MODEL EXPERIMENTAL     PACKAGE SFR             CONNECTED TO MODEL EXPERIMENTAL     PACKAGE EXPERIMENTAL     ON UNIT   1015 AT TIME STEP     41, STRESS PERIOD      2
 UBDSV06 SAVING         RAINFALL IN MODEL EXPERIMENTAL     PACKAGE SFR             CONNECTED TO MODEL EXPERIMENTAL     PACKAGE SFR              ON UNIT   1015 AT TIME STEP     41, STRESS PERIOD      2
 UBDSV06 SAVING      EVAPORATION IN MODEL EXPERIMENTAL     PACKAGE SFR             CONNECTED TO MODEL EXPERIMENTAL     PACKAGE SFR              ON UNIT   1015 AT TIME STEP     41, STRESS PERIOD      2
 UBDSV06 SAVING           RUNOFF IN MODEL EXPERIMENTAL     PACKAGE SFR             CONNECTED TO MODEL EXPERIMENTAL     PACKAGE SFR              ON UNIT   1015 AT TIME STEP     41, STRESS PERIOD      2
 UBDSV06 SAVING       EXT-INFLOW IN MODEL EXPERIMENTAL     PACKAGE SFR             CONNECTED TO MODEL EXPERIMENTAL     PACKAGE SFR              ON UNIT   1015 AT TIME STEP     41, STRESS PERIOD      2
 UBDSV06 SAVING      EXT-OUTFLOW IN MODEL EXPERIMENTAL     PACKAGE SFR             CONNECTED TO MODEL EXPERIMENTAL     PACKAGE SFR              ON UNIT   1015 AT TIME STEP     41, STRESS PERIOD      2
 UBDSV06 SAVING          STORAGE IN MODEL EXPERIMENTAL     PACKAGE SFR             CONNECTED TO MODEL EXPERIMENTAL     PACKAGE SFR              ON UNIT   1015 AT TIME STEP     41, STRESS PERIOD      2

 HEAD WILL BE SAVED ON UNIT 1020 AT END OF TIME STEP   41, STRESS PERIOD    2

end timestep


start timestep kper="2" kstp="42" mode="normal"

 UBDSV1 SAVING           STO-SS ON UNIT   1019 AT TIME STEP     42, STRESS PERIOD      2
 UBDSV1 SAVING           STO-SY ON UNIT   1019 AT TIME STEP     42, STRESS PERIOD      2
 UBDSV1 SAVING     FLOW-JA-FACE ON UNIT   1019 AT TIME STEP     42, STRESS PERIOD      2
 UBDSV06 SAVING              GHB IN MODEL EXPERIMENTAL     PACKAGE EXPERIMENTAL    CONNECTED TO MODEL EXPERIMENTAL     PACKAGE GHB              ON UNIT   1019 AT TIME STEP     42, STRESS PERIOD      2
 UBDSV06 SAVING              RCH IN MODEL EXPERIMENTAL     PACKAGE EXPERIMENTAL    CONNECTED TO MODEL EXPERIMENTAL     PACKAGE RCH              ON UNIT   1019 AT TIME STEP     42, STRESS PERIOD      2
 UBDSV06 SAVING              SFR IN MODEL EXPERIMENTAL     PACKAGE EXPERIMENTAL    CONNECTED TO MODEL EXPERIMENTAL     PACKAGE SFR              ON UNIT   1019 AT TIME STEP     42, STRESS PERIOD      2
 UBDSV06 SAVING     FLOW-JA-FACE IN MODEL EXPERIMENTAL     PACKAGE SFR             CONNECTED TO MODEL EXPERIMENTAL     PACKAGE SFR              ON UNIT   1015 AT TIME STEP     42, STRESS PERIOD      2
 UBDSV06 SAVING              GWF IN MODEL EXPERIMENTAL     PACKAGE SFR             CONNECTED TO MODEL EXPERIMENTAL     PACKAGE EXPERIMENTAL     ON UNIT   1015 AT TIME STEP     42, STRESS PERIOD      2
 UBDSV06 SAVING         RAINFALL IN MODEL EXPERIMENTAL     PACKAGE SFR             CONNECTED TO MODEL EXPERIMENTAL     PACKAGE SFR              ON UNIT   1015 AT TIME STEP     42, STRESS PERIOD      2
 UBDSV06 SAVING      EVAPORATION IN MODEL EXPERIMENTAL     PACKAGE SFR             CONNECTED TO MODEL EXPERIMENTAL     PACKAGE SFR              ON UNIT   1015 AT TIME STEP     42, STRESS PERIOD      2
 UBDSV06 SAVING           RUNOFF IN MODEL EXPERIMENTAL     PACKAGE SFR             CONNECTED TO MODEL EXPERIMENTAL     PACKAGE SFR              ON UNIT   1015 AT TIME STEP     42, STRESS PERIOD      2
 UBDSV06 SAVING       EXT-INFLOW IN MODEL EXPERIMENTAL     PACKAGE SFR             CONNECTED TO MODEL EXPERIMENTAL     PACKAGE SFR              ON UNIT   1015 AT TIME STEP     42, STRESS PERIOD      2
 UBDSV06 SAVING      EXT-OUTFLOW IN MODEL EXPERIMENTAL     PACKAGE SFR             CONNECTED TO MODEL EXPERIMENTAL     PACKAGE SFR              ON UNIT   1015 AT TIME STEP     42, STRESS PERIOD      2
 UBDSV06 SAVING          STORAGE IN MODEL EXPERIMENTAL     PACKAGE SFR             CONNECTED TO MODEL EXPERIMENTAL     PACKAGE SFR              ON UNIT   1015 AT TIME STEP     42, STRESS PERIOD      2

 HEAD WILL BE SAVED ON UNIT 1020 AT END OF TIME STEP   42, STRESS PERIOD    2

end timestep


start timestep kper="2" kstp="43" mode="normal"

 UBDSV1 SAVING           STO-SS ON UNIT   1019 AT TIME STEP     43, STRESS PERIOD      2
 UBDSV1 SAVING           STO-SY ON UNIT   1019 AT TIME STEP     43, STRESS PERIOD      2
 UBDSV1 SAVING     FLOW-JA-FACE ON UNIT   1019 AT TIME STEP     43, STRESS PERIOD      2
 UBDSV06 SAVING              GHB IN MODEL EXPERIMENTAL     PACKAGE EXPERIMENTAL    CONNECTED TO MODEL EXPERIMENTAL     PACKAGE GHB              ON UNIT   1019 AT TIME STEP     43, STRESS PERIOD      2
 UBDSV06 SAVING              RCH IN MODEL EXPERIMENTAL     PACKAGE EXPERIMENTAL    CONNECTED TO MODEL EXPERIMENTAL     PACKAGE RCH              ON UNIT   1019 AT TIME STEP     43, STRESS PERIOD      2
 UBDSV06 SAVING              SFR IN MODEL EXPERIMENTAL     PACKAGE EXPERIMENTAL    CONNECTED TO MODEL EXPERIMENTAL     PACKAGE SFR              ON UNIT   1019 AT TIME STEP     43, STRESS PERIOD      2
 UBDSV06 SAVING     FLOW-JA-FACE IN MODEL EXPERIMENTAL     PACKAGE SFR             CONNECTED TO MODEL EXPERIMENTAL     PACKAGE SFR              ON UNIT   1015 AT TIME STEP     43, STRESS PERIOD      2
 UBDSV06 SAVING              GWF IN MODEL EXPERIMENTAL     PACKAGE SFR             CONNECTED TO MODEL EXPERIMENTAL     PACKAGE EXPERIMENTAL     ON UNIT   1015 AT TIME STEP     43, STRESS PERIOD      2
 UBDSV06 SAVING         RAINFALL IN MODEL EXPERIMENTAL     PACKAGE SFR             CONNECTED TO MODEL EXPERIMENTAL     PACKAGE SFR              ON UNIT   1015 AT TIME STEP     43, STRESS PERIOD      2
 UBDSV06 SAVING      EVAPORATION IN MODEL EXPERIMENTAL     PACKAGE SFR             CONNECTED TO MODEL EXPERIMENTAL     PACKAGE SFR              ON UNIT   1015 AT TIME STEP     43, STRESS PERIOD      2
 UBDSV06 SAVING           RUNOFF IN MODEL EXPERIMENTAL     PACKAGE SFR             CONNECTED TO MODEL EXPERIMENTAL     PACKAGE SFR              ON UNIT   1015 AT TIME STEP     43, STRESS PERIOD      2
 UBDSV06 SAVING       EXT-INFLOW IN MODEL EXPERIMENTAL     PACKAGE SFR             CONNECTED TO MODEL EXPERIMENTAL     PACKAGE SFR              ON UNIT   1015 AT TIME STEP     43, STRESS PERIOD      2
 UBDSV06 SAVING      EXT-OUTFLOW IN MODEL EXPERIMENTAL     PACKAGE SFR             CONNECTED TO MODEL EXPERIMENTAL     PACKAGE SFR              ON UNIT   1015 AT TIME STEP     43, STRESS PERIOD      2
 UBDSV06 SAVING          STORAGE IN MODEL EXPERIMENTAL     PACKAGE SFR             CONNECTED TO MODEL EXPERIMENTAL     PACKAGE SFR              ON UNIT   1015 AT TIME STEP     43, STRESS PERIOD      2

 HEAD WILL BE SAVED ON UNIT 1020 AT END OF TIME STEP   43, STRESS PERIOD    2

end timestep


start timestep kper="2" kstp="44" mode="normal"

 UBDSV1 SAVING           STO-SS ON UNIT   1019 AT TIME STEP     44, STRESS PERIOD      2
 UBDSV1 SAVING           STO-SY ON UNIT   1019 AT TIME STEP     44, STRESS PERIOD      2
 UBDSV1 SAVING     FLOW-JA-FACE ON UNIT   1019 AT TIME STEP     44, STRESS PERIOD      2
 UBDSV06 SAVING              GHB IN MODEL EXPERIMENTAL     PACKAGE EXPERIMENTAL    CONNECTED TO MODEL EXPERIMENTAL     PACKAGE GHB              ON UNIT   1019 AT TIME STEP     44, STRESS PERIOD      2
 UBDSV06 SAVING              RCH IN MODEL EXPERIMENTAL     PACKAGE EXPERIMENTAL    CONNECTED TO MODEL EXPERIMENTAL     PACKAGE RCH              ON UNIT   1019 AT TIME STEP     44, STRESS PERIOD      2
 UBDSV06 SAVING              SFR IN MODEL EXPERIMENTAL     PACKAGE EXPERIMENTAL    CONNECTED TO MODEL EXPERIMENTAL     PACKAGE SFR              ON UNIT   1019 AT TIME STEP     44, STRESS PERIOD      2
 UBDSV06 SAVING     FLOW-JA-FACE IN MODEL EXPERIMENTAL     PACKAGE SFR             CONNECTED TO MODEL EXPERIMENTAL     PACKAGE SFR              ON UNIT   1015 AT TIME STEP     44, STRESS PERIOD      2
 UBDSV06 SAVING              GWF IN MODEL EXPERIMENTAL     PACKAGE SFR             CONNECTED TO MODEL EXPERIMENTAL     PACKAGE EXPERIMENTAL     ON UNIT   1015 AT TIME STEP     44, STRESS PERIOD      2
 UBDSV06 SAVING         RAINFALL IN MODEL EXPERIMENTAL     PACKAGE SFR             CONNECTED TO MODEL EXPERIMENTAL     PACKAGE SFR              ON UNIT   1015 AT TIME STEP     44, STRESS PERIOD      2
 UBDSV06 SAVING      EVAPORATION IN MODEL EXPERIMENTAL     PACKAGE SFR             CONNECTED TO MODEL EXPERIMENTAL     PACKAGE SFR              ON UNIT   1015 AT TIME STEP     44, STRESS PERIOD      2
 UBDSV06 SAVING           RUNOFF IN MODEL EXPERIMENTAL     PACKAGE SFR             CONNECTED TO MODEL EXPERIMENTAL     PACKAGE SFR              ON UNIT   1015 AT TIME STEP     44, STRESS PERIOD      2
 UBDSV06 SAVING       EXT-INFLOW IN MODEL EXPERIMENTAL     PACKAGE SFR             CONNECTED TO MODEL EXPERIMENTAL     PACKAGE SFR              ON UNIT   1015 AT TIME STEP     44, STRESS PERIOD      2
 UBDSV06 SAVING      EXT-OUTFLOW IN MODEL EXPERIMENTAL     PACKAGE SFR             CONNECTED TO MODEL EXPERIMENTAL     PACKAGE SFR              ON UNIT   1015 AT TIME STEP     44, STRESS PERIOD      2
 UBDSV06 SAVING          STORAGE IN MODEL EXPERIMENTAL     PACKAGE SFR             CONNECTED TO MODEL EXPERIMENTAL     PACKAGE SFR              ON UNIT   1015 AT TIME STEP     44, STRESS PERIOD      2

 HEAD WILL BE SAVED ON UNIT 1020 AT END OF TIME STEP   44, STRESS PERIOD    2

end timestep


start timestep kper="2" kstp="45" mode="normal"

 UBDSV1 SAVING           STO-SS ON UNIT   1019 AT TIME STEP     45, STRESS PERIOD      2
 UBDSV1 SAVING           STO-SY ON UNIT   1019 AT TIME STEP     45, STRESS PERIOD      2
 UBDSV1 SAVING     FLOW-JA-FACE ON UNIT   1019 AT TIME STEP     45, STRESS PERIOD      2
 UBDSV06 SAVING              GHB IN MODEL EXPERIMENTAL     PACKAGE EXPERIMENTAL    CONNECTED TO MODEL EXPERIMENTAL     PACKAGE GHB              ON UNIT   1019 AT TIME STEP     45, STRESS PERIOD      2
 UBDSV06 SAVING              RCH IN MODEL EXPERIMENTAL     PACKAGE EXPERIMENTAL    CONNECTED TO MODEL EXPERIMENTAL     PACKAGE RCH              ON UNIT   1019 AT TIME STEP     45, STRESS PERIOD      2
 UBDSV06 SAVING              SFR IN MODEL EXPERIMENTAL     PACKAGE EXPERIMENTAL    CONNECTED TO MODEL EXPERIMENTAL     PACKAGE SFR              ON UNIT   1019 AT TIME STEP     45, STRESS PERIOD      2
 UBDSV06 SAVING     FLOW-JA-FACE IN MODEL EXPERIMENTAL     PACKAGE SFR             CONNECTED TO MODEL EXPERIMENTAL     PACKAGE SFR              ON UNIT   1015 AT TIME STEP     45, STRESS PERIOD      2
 UBDSV06 SAVING              GWF IN MODEL EXPERIMENTAL     PACKAGE SFR             CONNECTED TO MODEL EXPERIMENTAL     PACKAGE EXPERIMENTAL     ON UNIT   1015 AT TIME STEP     45, STRESS PERIOD      2
 UBDSV06 SAVING         RAINFALL IN MODEL EXPERIMENTAL     PACKAGE SFR             CONNECTED TO MODEL EXPERIMENTAL     PACKAGE SFR              ON UNIT   1015 AT TIME STEP     45, STRESS PERIOD      2
 UBDSV06 SAVING      EVAPORATION IN MODEL EXPERIMENTAL     PACKAGE SFR             CONNECTED TO MODEL EXPERIMENTAL     PACKAGE SFR              ON UNIT   1015 AT TIME STEP     45, STRESS PERIOD      2
 UBDSV06 SAVING           RUNOFF IN MODEL EXPERIMENTAL     PACKAGE SFR             CONNECTED TO MODEL EXPERIMENTAL     PACKAGE SFR              ON UNIT   1015 AT TIME STEP     45, STRESS PERIOD      2
 UBDSV06 SAVING       EXT-INFLOW IN MODEL EXPERIMENTAL     PACKAGE SFR             CONNECTED TO MODEL EXPERIMENTAL     PACKAGE SFR              ON UNIT   1015 AT TIME STEP     45, STRESS PERIOD      2
 UBDSV06 SAVING      EXT-OUTFLOW IN MODEL EXPERIMENTAL     PACKAGE SFR             CONNECTED TO MODEL EXPERIMENTAL     PACKAGE SFR              ON UNIT   1015 AT TIME STEP     45, STRESS PERIOD      2
 UBDSV06 SAVING          STORAGE IN MODEL EXPERIMENTAL     PACKAGE SFR             CONNECTED TO MODEL EXPERIMENTAL     PACKAGE SFR              ON UNIT   1015 AT TIME STEP     45, STRESS PERIOD      2

 HEAD WILL BE SAVED ON UNIT 1020 AT END OF TIME STEP   45, STRESS PERIOD    2

end timestep


start timestep kper="2" kstp="46" mode="normal"

 UBDSV1 SAVING           STO-SS ON UNIT   1019 AT TIME STEP     46, STRESS PERIOD      2
 UBDSV1 SAVING           STO-SY ON UNIT   1019 AT TIME STEP     46, STRESS PERIOD      2
 UBDSV1 SAVING     FLOW-JA-FACE ON UNIT   1019 AT TIME STEP     46, STRESS PERIOD      2
 UBDSV06 SAVING              GHB IN MODEL EXPERIMENTAL     PACKAGE EXPERIMENTAL    CONNECTED TO MODEL EXPERIMENTAL     PACKAGE GHB              ON UNIT   1019 AT TIME STEP     46, STRESS PERIOD      2
 UBDSV06 SAVING              RCH IN MODEL EXPERIMENTAL     PACKAGE EXPERIMENTAL    CONNECTED TO MODEL EXPERIMENTAL     PACKAGE RCH              ON UNIT   1019 AT TIME STEP     46, STRESS PERIOD      2
 UBDSV06 SAVING              SFR IN MODEL EXPERIMENTAL     PACKAGE EXPERIMENTAL    CONNECTED TO MODEL EXPERIMENTAL     PACKAGE SFR              ON UNIT   1019 AT TIME STEP     46, STRESS PERIOD      2
 UBDSV06 SAVING     FLOW-JA-FACE IN MODEL EXPERIMENTAL     PACKAGE SFR             CONNECTED TO MODEL EXPERIMENTAL     PACKAGE SFR              ON UNIT   1015 AT TIME STEP     46, STRESS PERIOD      2
 UBDSV06 SAVING              GWF IN MODEL EXPERIMENTAL     PACKAGE SFR             CONNECTED TO MODEL EXPERIMENTAL     PACKAGE EXPERIMENTAL     ON UNIT   1015 AT TIME STEP     46, STRESS PERIOD      2
 UBDSV06 SAVING         RAINFALL IN MODEL EXPERIMENTAL     PACKAGE SFR             CONNECTED TO MODEL EXPERIMENTAL     PACKAGE SFR              ON UNIT   1015 AT TIME STEP     46, STRESS PERIOD      2
 UBDSV06 SAVING      EVAPORATION IN MODEL EXPERIMENTAL     PACKAGE SFR             CONNECTED TO MODEL EXPERIMENTAL     PACKAGE SFR              ON UNIT   1015 AT TIME STEP     46, STRESS PERIOD      2
 UBDSV06 SAVING           RUNOFF IN MODEL EXPERIMENTAL     PACKAGE SFR             CONNECTED TO MODEL EXPERIMENTAL     PACKAGE SFR              ON UNIT   1015 AT TIME STEP     46, STRESS PERIOD      2
 UBDSV06 SAVING       EXT-INFLOW IN MODEL EXPERIMENTAL     PACKAGE SFR             CONNECTED TO MODEL EXPERIMENTAL     PACKAGE SFR              ON UNIT   1015 AT TIME STEP     46, STRESS PERIOD      2
 UBDSV06 SAVING      EXT-OUTFLOW IN MODEL EXPERIMENTAL     PACKAGE SFR             CONNECTED TO MODEL EXPERIMENTAL     PACKAGE SFR              ON UNIT   1015 AT TIME STEP     46, STRESS PERIOD      2
 UBDSV06 SAVING          STORAGE IN MODEL EXPERIMENTAL     PACKAGE SFR             CONNECTED TO MODEL EXPERIMENTAL     PACKAGE SFR              ON UNIT   1015 AT TIME STEP     46, STRESS PERIOD      2

 HEAD WILL BE SAVED ON UNIT 1020 AT END OF TIME STEP   46, STRESS PERIOD    2

end timestep


start timestep kper="2" kstp="47" mode="normal"

 UBDSV1 SAVING           STO-SS ON UNIT   1019 AT TIME STEP     47, STRESS PERIOD      2
 UBDSV1 SAVING           STO-SY ON UNIT   1019 AT TIME STEP     47, STRESS PERIOD      2
 UBDSV1 SAVING     FLOW-JA-FACE ON UNIT   1019 AT TIME STEP     47, STRESS PERIOD      2
 UBDSV06 SAVING              GHB IN MODEL EXPERIMENTAL     PACKAGE EXPERIMENTAL    CONNECTED TO MODEL EXPERIMENTAL     PACKAGE GHB              ON UNIT   1019 AT TIME STEP     47, STRESS PERIOD      2
 UBDSV06 SAVING              RCH IN MODEL EXPERIMENTAL     PACKAGE EXPERIMENTAL    CONNECTED TO MODEL EXPERIMENTAL     PACKAGE RCH              ON UNIT   1019 AT TIME STEP     47, STRESS PERIOD      2
 UBDSV06 SAVING              SFR IN MODEL EXPERIMENTAL     PACKAGE EXPERIMENTAL    CONNECTED TO MODEL EXPERIMENTAL     PACKAGE SFR              ON UNIT   1019 AT TIME STEP     47, STRESS PERIOD      2
 UBDSV06 SAVING     FLOW-JA-FACE IN MODEL EXPERIMENTAL     PACKAGE SFR             CONNECTED TO MODEL EXPERIMENTAL     PACKAGE SFR              ON UNIT   1015 AT TIME STEP     47, STRESS PERIOD      2
 UBDSV06 SAVING              GWF IN MODEL EXPERIMENTAL     PACKAGE SFR             CONNECTED TO MODEL EXPERIMENTAL     PACKAGE EXPERIMENTAL     ON UNIT   1015 AT TIME STEP     47, STRESS PERIOD      2
 UBDSV06 SAVING         RAINFALL IN MODEL EXPERIMENTAL     PACKAGE SFR             CONNECTED TO MODEL EXPERIMENTAL     PACKAGE SFR              ON UNIT   1015 AT TIME STEP     47, STRESS PERIOD      2
 UBDSV06 SAVING      EVAPORATION IN MODEL EXPERIMENTAL     PACKAGE SFR             CONNECTED TO MODEL EXPERIMENTAL     PACKAGE SFR              ON UNIT   1015 AT TIME STEP     47, STRESS PERIOD      2
 UBDSV06 SAVING           RUNOFF IN MODEL EXPERIMENTAL     PACKAGE SFR             CONNECTED TO MODEL EXPERIMENTAL     PACKAGE SFR              ON UNIT   1015 AT TIME STEP     47, STRESS PERIOD      2
 UBDSV06 SAVING       EXT-INFLOW IN MODEL EXPERIMENTAL     PACKAGE SFR             CONNECTED TO MODEL EXPERIMENTAL     PACKAGE SFR              ON UNIT   1015 AT TIME STEP     47, STRESS PERIOD      2
 UBDSV06 SAVING      EXT-OUTFLOW IN MODEL EXPERIMENTAL     PACKAGE SFR             CONNECTED TO MODEL EXPERIMENTAL     PACKAGE SFR              ON UNIT   1015 AT TIME STEP     47, STRESS PERIOD      2
 UBDSV06 SAVING          STORAGE IN MODEL EXPERIMENTAL     PACKAGE SFR             CONNECTED TO MODEL EXPERIMENTAL     PACKAGE SFR              ON UNIT   1015 AT TIME STEP     47, STRESS PERIOD      2

 HEAD WILL BE SAVED ON UNIT 1020 AT END OF TIME STEP   47, STRESS PERIOD    2

end timestep


start timestep kper="2" kstp="48" mode="normal"

 UBDSV1 SAVING           STO-SS ON UNIT   1019 AT TIME STEP     48, STRESS PERIOD      2
 UBDSV1 SAVING           STO-SY ON UNIT   1019 AT TIME STEP     48, STRESS PERIOD      2
 UBDSV1 SAVING     FLOW-JA-FACE ON UNIT   1019 AT TIME STEP     48, STRESS PERIOD      2
 UBDSV06 SAVING              GHB IN MODEL EXPERIMENTAL     PACKAGE EXPERIMENTAL    CONNECTED TO MODEL EXPERIMENTAL     PACKAGE GHB              ON UNIT   1019 AT TIME STEP     48, STRESS PERIOD      2

 GHB PACKAGE (GHB) FLOW RATES   PERIOD      2   STEP       48
 --------------------------------------------------------------------
   NUMBER   CELLID                    RATE       NAME                
 --------------------------------------------------------------------
     1      (1,830)               68.803673      RED                 
     2      (1,913)               70.823279      RED                 
     3      (1,996)               73.301069      RED                 
     4      (1,1076)              75.454842      RED                 
     5      (1,1156)              77.065730      RED                 
     6      (1,1239)              78.992108      RED                 
     7      (1,1319)              80.628675      RED                 
     8      (1,1398)              81.283760      RED                 
     9      (1,1485)              81.062136      RED                 
     10     (1,1580)              77.814297      RED                 
     11     (1,1692)              77.361793      RED                 
     12     (1,1776)              73.667439      RED                 
     13     (1,1853)              72.366378      RED                 
     14     (1,1929)              74.690689      RED                 
     15     (1,2004)              75.003902      RED                 
     16     (1,2075)              74.359776      RED                 
     17     (1,2145)              74.328426      RED                 
     18     (1,2214)              73.982861      RED                 
     19     (1,2309)              74.507410      RED                 
     20     (1,2403)              74.553931      RED                 
     21     (1,2487)              74.003354      RED                 
     22     (1,2564)              68.370229      RED                 
     23     (1,2565)              68.199918      RED                 
     24     (1,2635)              75.341013      RED                 
     25     (1,2704)              76.837889      RED                 
     26     (1,2784)              77.174330      RED                 
     27     (1,428)               190.38648      ORANGERED           
     28     (1,504)               163.91171      ORANGERED           
     29     (1,584)               144.97074      ORANGERED           
     30     (1,665)               130.44603      ORANGERED           
     31     (1,747)               119.53179      ORANGERED           
     32     (1,312)               164.18541      ORANGE              
     33     (1,313)               144.96573      ORANGE              
     34     (1,314)               130.36746      ORANGE              
     35     (1,315)               118.93440      ORANGE              
     36     (1,316)               109.19148      ORANGE              
     37     (1,317)               100.43274      ORANGE              
     38     (1,318)               92.408576      ORANGE              
     39     (1,319)               84.927848      ORANGE              
     40     (1,320)               78.005154      ORANGE              
     41     (1,321)               71.311764      ORANGE              
     42     (1,322)               64.683128      ORANGE              
     43     (1,323)               58.019575      ORANGE              
     44     (1,324)               51.196176      ORANGE              
     45     (1,325)               44.551637      ORANGE              
     46     (1,326)               37.904782      ORANGE              
     47     (1,327)               31.189991      ORANGE              
     48     (1,328)               24.168968      ORANGE              
     49     (1,329)               17.671567      ORANGE              
     50     (1,330)               11.422527      ORANGE              
     51     (1,331)               5.4869540      ORANGE              
     52     (1,332)              -0.34973025     ORANGE              
     53     (1,333)              -5.8603333      ORANGE              
     54     (1,334)              -11.730585      ORANGE              
     55     (1,335)              -7.6257746      ORANGE              
     56     (1,336)              -3.2762416      ORANGE              
     57     (1,337)              -5.6816872      ORANGE              
     58     (1,338)              -12.765548      ORANGE              
     59     (1,339)              -18.903996      ORANGE              
     60     (1,340)              -16.324115      ORANGE              
     61     (1,341)              -15.165586      ORANGE              
     62     (1,342)              -24.090281      ORANGE              
     63     (1,343)              -26.585869      ORANGE              
     64     (1,344)              -27.420140      ORANGE              
     65     (1,345)              -41.916593      ORANGE              
     66     (1,346)              -68.569156      ORANGE              
     67     (1,347)              -60.574468      ORANGE              
     68     (1,51)                82.241824      GOLD                
     69     (1,84)                76.009575      GOLD                
     70     (1,116)               69.763772      GOLD                
     71     (1,150)               63.148894      GOLD                
     72     (1,186)               55.144019      GOLD                
     73     (1,224)               44.603420      GOLD                
     74     (1,264)               28.857828      GOLD                
     75     (1,1)                 61.340333      YELLOWGREEN         
     76     (1,2)                 62.475787      YELLOWGREEN         
     77     (1,3)                 65.459952      YELLOWGREEN         
     78     (1,4)                 71.774060      YELLOWGREEN         
     79     (1,5)                 76.166537      YELLOWGREEN         
     80     (1,6)                 76.814645      YELLOWGREEN         
     81     (1,9)                 78.295926      YELLOWGREEN         
     82     (1,10)                70.627866      YELLOWGREEN         
     83     (1,11)                63.989389      YELLOWGREEN         
     84     (1,12)                58.059647      YELLOWGREEN         
     85     (1,13)                52.609085      YELLOWGREEN         
     86     (1,14)                47.398111      YELLOWGREEN         
     87     (1,15)                42.445164      YELLOWGREEN         
     88     (1,16)                37.673797      YELLOWGREEN         
     89     (1,17)                32.957630      YELLOWGREEN         
     90     (1,18)                28.019008      YELLOWGREEN         
     91     (1,19)                23.147354      YELLOWGREEN         
     92     (1,20)                18.799715      YELLOWGREEN         
     93     (1,21)                14.625124      YELLOWGREEN         
     94     (1,22)                10.681409      YELLOWGREEN         
     95     (1,23)                7.5578433      YELLOWGREEN         
     96     (1,52)               -5.8758683      LIMEGREEN           
     97     (1,85)               -4.7241164      LIMEGREEN           
     98     (1,117)              -3.9127763      LIMEGREEN           
     99     (1,151)              -3.0204732      LIMEGREEN           
    100     (1,187)              -1.8253833      LIMEGREEN           
    101     (1,265)              -30.463013      AQUA                
    102     (1,348)              -30.268231      AQUA                
    103     (1,429)              -30.119270      AQUA                
    104     (1,505)              -30.071050      AQUA                
    105     (1,585)              -30.114095      AQUA                
    106     (1,666)              -30.225922      AQUA                
    107     (1,748)              -30.387261      AQUA                
    108     (1,831)              -30.589528      AQUA                
    109     (1,914)              -30.815266      AQUA                
    110     (1,997)              -31.054474      AQUA                
    111     (1,1077)             -31.317082      AQUA                
    112     (1,1157)             -31.597147      AQUA                
    113     (1,1240)             -31.855197      AQUA                
    114     (1,1399)             -36.079775      DARKTURQUOISE       
    115     (1,1486)             -37.625173      DARKTURQUOISE       
    116     (1,1581)             -39.459093      DARKTURQUOISE       
    117     (1,1693)             -41.451771      DARKTURQUOISE       
    118     (1,1777)             -43.588266      DARKTURQUOISE       
    119     (1,1854)             -45.900183      DARKTURQUOISE       
    120     (1,1930)             -48.381710      DARKTURQUOISE       
    121     (1,2005)             -51.009567      DARKTURQUOISE       
    122     (1,2076)             -53.851394      DARKTURQUOISE       
    123     (1,2146)             -56.903111      DARKTURQUOISE       
    124     (1,2215)             -60.118406      DARKTURQUOISE       
    125     (1,2310)             -63.947150      DARKTURQUOISE       
    126     (1,2404)             -67.920602      DARKTURQUOISE       
    127     (1,2488)             -72.017374      DARKTURQUOISE       
    128     (1,2566)             -76.245312      DARKTURQUOISE       
    129     (1,2636)             -80.701626      DARKTURQUOISE       
    130     (1,2705)             -85.357871      DARKTURQUOISE       
    131     (1,2785)             -90.023219      DARKTURQUOISE       
    132     (1,2856)             -94.942328      DARKTURQUOISE       
    133     (1,2921)             -100.29408      DARKTURQUOISE       
    134     (1,2971)             -106.11666      DARKTURQUOISE       
    135     (1,3018)             -112.55450      DARKTURQUOISE       
    136     (1,3061)             -103.93563      DARKTURQUOISE       
    137     (1,3097)             -45.872269      DARKTURQUOISE       
    138     (1,3126)              9.1522467      ROYALBLUE           
    139     (1,3127)              36.871570      ROYALBLUE           
    140     (1,3128)              63.220517      ROYALBLUE           
    141     (1,3129)              94.772043      ROYALBLUE           
    142     (1,3130)              108.86808      ROYALBLUE           
    143     (1,3131)              140.39610      ROYALBLUE           
    144     (1,3132)              150.16280      ROYALBLUE           
    145     (1,3133)              160.61908      ROYALBLUE           
    146     (1,3134)              168.27301      ROYALBLUE           
    147     (1,3135)              176.34380      ROYALBLUE           
    148     (1,3112)              152.66813      BLUE                
    149     (1,3125)              188.71436      BLUE                
    150     (1,3078)              101.90288      BLUEVIOLET          
    151     (1,3079)              90.201575      BLUEVIOLET          
    152     (1,3080)              72.207025      BLUEVIOLET          
    153     (1,3081)              59.612524      BLUEVIOLET          
    154     (1,3082)              54.372389      BLUEVIOLET          
    155     (1,3083)              73.770088      BLUEVIOLET          
    156     (1,3084)              57.910214      BLUEVIOLET          
    157     (1,3085)              49.209882      BLUEVIOLET          
    158     (1,3086)              45.750143      BLUEVIOLET          
    159     (1,3087)              39.939168      BLUEVIOLET          
    160     (1,3088)              43.140073      BLUEVIOLET          
    161     (1,3089)              42.350673      BLUEVIOLET          
    162     (1,3090)              33.064467      BLUEVIOLET          
    163     (1,3091)              32.866696      BLUEVIOLET          
    164     (1,3092)              23.894126      BLUEVIOLET          
    165     (1,3093)              28.696276      BLUEVIOLET          
    166     (1,3094)              40.555880      BLUEVIOLET          
    167     (1,3095)              51.514864      BLUEVIOLET          
    168     (1,3096)              50.024728      BLUEVIOLET          
    169     (1,3055)              58.548902      PURPLE              
    170     (1,3056)              89.709109      PURPLE              
    171     (1,3057)              108.59275      PURPLE              
    172     (1,3058)              125.03733      PURPLE              
    173     (1,3059)              129.01533      PURPLE              
    174     (1,3060)              139.15119      PURPLE              
    175     (1,3015)              108.10816      MEDIUMVIOLETRED     
    176     (1,3016)              115.44026      MEDIUMVIOLETRED     
    177     (1,3017)              119.03089      MEDIUMVIOLETRED     
    178     (1,2855)             -42.383891      CRIMSON             
    179     (1,2920)              23.398513      CRIMSON             
    180     (1,2970)              72.688119      CRIMSON             
 --------------------------------------------------------------------



 UBDSV06 SAVING              RCH IN MODEL EXPERIMENTAL     PACKAGE EXPERIMENTAL    CONNECTED TO MODEL EXPERIMENTAL     PACKAGE RCH              ON UNIT   1019 AT TIME STEP     48, STRESS PERIOD      2

 RCH PACKAGE (RCH) FLOW RATES   PERIOD      2   STEP       48
 -----------------------------------------------
   NUMBER   CELLID                    RATE      
 -----------------------------------------------
     1      (1,7)                 1.36966235E-02
     2      (1,8)                 1.36963559E-02
     3      (1,24)                5.47859589E-02
     4      (1,25)                5.47859589E-02
     5      (1,26)                5.47863602E-02
     6      (1,27)                5.47852900E-02
     7      (1,28)                5.47961258E-02
     8      (1,29)                1.36966235E-02
     9      (1,30)                1.36964897E-02
     10     (1,31)                1.36968910E-02
     11     (1,32)                1.36967573E-02
     12     (1,33)                1.36958208E-02
     13     (1,34)                1.36966235E-02
     14     (1,35)                1.36963559E-02
     15     (1,36)                1.36983626E-02
     16     (1,37)                5.47688356E-02
     17     (1,38)                5.48141855E-02
     18     (1,39)                5.48250214E-02
     19     (1,40)                5.47860926E-02
     20     (1,41)                5.47859589E-02
     21     (1,42)                5.47860926E-02
     22     (1,43)                5.47860926E-02
     23     (1,44)                5.47859589E-02
     24     (1,45)                5.47855575E-02
     25     (1,46)                5.47854238E-02
     26     (1,47)                5.48246200E-02
     27     (1,48)                5.48242187E-02
     28     (1,49)                5.47863602E-02
     29     (1,50)                5.47889019E-02
     30     (1,53)                5.48248876E-02
     31     (1,54)                5.47858251E-02
     32     (1,55)                5.47860926E-02
     33     (1,56)                5.47854238E-02
     34     (1,57)                5.47856913E-02
     35     (1,58)                5.48073630E-02
     36     (1,59)                1.36979612E-02
     37     (1,60)                1.36963559E-02
     38     (1,61)                1.36968910E-02
     39     (1,62)                1.36968910E-02
     40     (1,63)                1.36966235E-02
     41     (1,64)                1.36966235E-02
     42     (1,65)                1.36960884E-02
     43     (1,66)                1.36959546E-02
     44     (1,67)                1.36962222E-02
     45     (1,68)                1.36956871E-02
     46     (1,69)                1.36963559E-02
     47     (1,70)                1.36968910E-02
     48     (1,71)                5.48050888E-02
     49     (1,72)                5.48243525E-02
     50     (1,73)                5.47859589E-02
     51     (1,74)                5.47852900E-02
     52     (1,75)                5.47859589E-02
     53     (1,76)                5.47859589E-02
     54     (1,77)                5.47862264E-02
     55     (1,78)                5.47860926E-02
     56     (1,79)                5.47855575E-02
     57     (1,80)                5.48246200E-02
     58     (1,81)                5.48282320E-02
     59     (1,82)                5.47887681E-02
     60     (1,83)                5.47864940E-02
     61     (1,86)                5.47856913E-02
     62     (1,87)                5.48240849E-02
     63     (1,88)                5.48244863E-02
     64     (1,89)                5.47855575E-02
     65     (1,90)                5.47856913E-02
     66     (1,91)                5.47898384E-02
     67     (1,92)                5.47899721E-02
     68     (1,93)                5.47954569E-02
     69     (1,94)                5.48044199E-02
     70     (1,95)                1.36968910E-02
     71     (1,96)                1.36968910E-02
     72     (1,97)                1.36963559E-02
     73     (1,98)                1.36962222E-02
     74     (1,99)                1.36962222E-02
     75     (1,100)               1.36964897E-02
     76     (1,101)               1.36967573E-02
     77     (1,102)               1.36959546E-02
     78     (1,103)               5.48056239E-02
     79     (1,104)               5.48246200E-02
     80     (1,105)               5.47855575E-02
     81     (1,106)               5.47859589E-02
     82     (1,107)               5.47860926E-02
     83     (1,108)               5.47862264E-02
     84     (1,109)               5.47863602E-02
     85     (1,110)               5.47859589E-02
     86     (1,111)               5.47897046E-02
     87     (1,112)               5.48282320E-02
     88     (1,113)               5.48240849E-02
     89     (1,114)               5.47854238E-02
     90     (1,115)               5.47856913E-02
     91     (1,118)               5.47855575E-02
     92     (1,119)               5.47855575E-02
     93     (1,120)               5.47858251E-02
     94     (1,121)               5.48239512E-02
     95     (1,122)               5.48242187E-02
     96     (1,123)               5.47899721E-02
     97     (1,124)               5.47891695E-02
     98     (1,125)               5.47856913E-02
     99     (1,126)               5.47858251E-02
    100     (1,127)               5.47858251E-02
    101     (1,128)               5.48053563E-02
    102     (1,129)               1.36968910E-02
    103     (1,130)               1.36960884E-02
    104     (1,131)               1.36970248E-02
    105     (1,132)               1.36963559E-02
    106     (1,133)               1.36967573E-02
    107     (1,134)               1.36986301E-02
    108     (1,135)               1.36984963E-02
    109     (1,136)               1.36966235E-02
    110     (1,137)               5.48049550E-02
    111     (1,138)               5.48250214E-02
    112     (1,139)               5.47856913E-02
    113     (1,140)               5.47860926E-02
    114     (1,141)               5.47859589E-02
    115     (1,142)               5.47859589E-02
    116     (1,143)               5.47894370E-02
    117     (1,144)               5.47903735E-02
    118     (1,145)               5.47855575E-02
    119     (1,146)               5.48243525E-02
    120     (1,147)               5.48242187E-02
    121     (1,148)               5.47863602E-02
    122     (1,149)               5.47859589E-02
    123     (1,152)               5.47862264E-02
    124     (1,153)               5.47860926E-02
    125     (1,154)               5.47851562E-02
    126     (1,155)               5.47863602E-02
    127     (1,156)               5.47851562E-02
    128     (1,157)               5.48286333E-02
    129     (1,158)               5.48283657E-02
    130     (1,159)               5.47858251E-02
    131     (1,160)               5.47855575E-02
    132     (1,161)               5.47862264E-02
    133     (1,162)               5.47859589E-02
    134     (1,163)               5.47860926E-02
    135     (1,164)               5.48070954E-02
    136     (1,165)               1.36972924E-02
    137     (1,166)               1.36971586E-02
    138     (1,167)               1.36964897E-02
    139     (1,168)               1.36970248E-02
    140     (1,169)               1.36967573E-02
    141     (1,170)               1.36962222E-02
    142     (1,171)               1.36962222E-02
    143     (1,172)               1.36963559E-02
    144     (1,173)               5.48058914E-02
    145     (1,174)               5.48238174E-02
    146     (1,175)               5.47860926E-02
    147     (1,176)               5.47858251E-02
    148     (1,177)               5.47894370E-02
    149     (1,178)               5.47901059E-02
    150     (1,179)               5.47863602E-02
    151     (1,180)               5.47858251E-02
    152     (1,181)               5.47855575E-02
    153     (1,182)               5.48250214E-02
    154     (1,183)               5.48246200E-02
    155     (1,184)               5.47855575E-02
    156     (1,185)               5.47855575E-02
    157     (1,188)               5.47860926E-02
    158     (1,189)               5.47860926E-02
    159     (1,190)               5.47863602E-02
    160     (1,191)               5.47859589E-02
    161     (1,192)               5.47852900E-02
    162     (1,193)               5.47897046E-02
    163     (1,194)               5.47897046E-02
    164     (1,195)               5.48244863E-02
    165     (1,196)               5.48244863E-02
    166     (1,197)               5.47855575E-02
    167     (1,198)               5.47851562E-02
    168     (1,199)               5.47858251E-02
    169     (1,200)               5.47863602E-02
    170     (1,201)               5.47860926E-02
    171     (1,202)               5.48048212E-02
    172     (1,203)               1.36963559E-02
    173     (1,204)               1.36960884E-02
    174     (1,205)               1.36964897E-02
    175     (1,206)               1.36960884E-02
    176     (1,207)               1.36960884E-02
    177     (1,208)               1.36967573E-02
    178     (1,209)               1.36967573E-02
    179     (1,210)               1.36967573E-02
    180     (1,211)               5.48045537E-02
    181     (1,212)               5.48244863E-02
    182     (1,213)               5.47894370E-02
    183     (1,214)               5.47891695E-02
    184     (1,215)               5.47863602E-02
    185     (1,216)               5.47858251E-02
    186     (1,217)               5.47859589E-02
    187     (1,218)               5.47860926E-02
    188     (1,219)               5.47862264E-02
    189     (1,220)               5.48246200E-02
    190     (1,221)               5.48239512E-02
    191     (1,222)               5.47862264E-02
    192     (1,223)               5.47859589E-02
    193     (1,225)               5.47854238E-02
    194     (1,226)               5.48242187E-02
    195     (1,227)               5.48246200E-02
    196     (1,228)               5.47856913E-02
    197     (1,229)               5.47860926E-02
    198     (1,230)               5.47862264E-02
    199     (1,231)               5.47894370E-02
    200     (1,232)               5.47897046E-02
    201     (1,233)               5.47860926E-02
    202     (1,234)               5.47858251E-02
    203     (1,235)               5.48244863E-02
    204     (1,236)               5.48243525E-02
    205     (1,237)               5.47862264E-02
    206     (1,238)               5.47855575E-02
    207     (1,239)               5.47856913E-02
    208     (1,240)               5.47859589E-02
    209     (1,241)               5.47856913E-02
    210     (1,242)               5.48058914E-02
    211     (1,243)               1.36970248E-02
    212     (1,244)               1.36963559E-02
    213     (1,245)               1.36963559E-02
    214     (1,246)               1.36968910E-02
    215     (1,247)               1.36964897E-02
    216     (1,248)               1.36964897E-02
    217     (1,249)               1.36963559E-02
    218     (1,250)               1.36968910E-02
    219     (1,251)               5.48081656E-02
    220     (1,252)               5.48272955E-02
    221     (1,253)               5.47939854E-02
    222     (1,254)               5.47858251E-02
    223     (1,255)               5.47856913E-02
    224     (1,256)               5.47859589E-02
    225     (1,257)               5.47859589E-02
    226     (1,258)               5.47862264E-02
    227     (1,259)               5.47858251E-02
    228     (1,260)               5.48243525E-02
    229     (1,261)               5.48244863E-02
    230     (1,262)               5.47855575E-02
    231     (1,263)               5.47852900E-02
    232     (1,266)               5.47856913E-02
    233     (1,267)               5.47859589E-02
    234     (1,268)               5.48246200E-02
    235     (1,269)               5.48246200E-02
    236     (1,270)               5.47863602E-02
    237     (1,271)               5.47902397E-02
    238     (1,272)               5.47895708E-02
    239     (1,273)               5.47854238E-02
    240     (1,274)               5.47854238E-02
    241     (1,275)               5.47855575E-02
    242     (1,276)               5.47854238E-02
    243     (1,277)               5.48246200E-02
    244     (1,278)               5.48243525E-02
    245     (1,279)               5.47855575E-02
    246     (1,280)               5.47854238E-02
    247     (1,281)               5.47858251E-02
    248     (1,282)               5.47858251E-02
    249     (1,283)               5.47852900E-02
    250     (1,284)               5.48049550E-02
    251     (1,285)               1.36960884E-02
    252     (1,286)               1.36963559E-02
    253     (1,287)               1.36968910E-02
    254     (1,288)               1.36978275E-02
    255     (1,289)               1.36990315E-02
    256     (1,290)               1.36966235E-02
    257     (1,291)               1.36960884E-02
    258     (1,292)               1.36963559E-02
    259     (1,293)               1.36964897E-02
    260     (1,294)               1.37160210E-02
    261     (1,295)               1.36966235E-02
    262     (1,296)               1.36964897E-02
    263     (1,297)               1.36962222E-02
    264     (1,298)               1.36963559E-02
    265     (1,299)               1.37157534E-02
    266     (1,300)               1.36960884E-02
    267     (1,301)               5.48048212E-02
    268     (1,302)               5.47946543E-02
    269     (1,303)               5.47858251E-02
    270     (1,304)               5.47854238E-02
    271     (1,305)               5.47855575E-02
    272     (1,306)               5.47862264E-02
    273     (1,307)               5.47859589E-02
    274     (1,308)               5.48239512E-02
    275     (1,309)               5.48248876E-02
    276     (1,310)               5.47856913E-02
    277     (1,311)               5.47859589E-02
    278     (1,349)               5.47858251E-02
    279     (1,350)               5.47858251E-02
    280     (1,351)               5.47862264E-02
    281     (1,352)               5.48243525E-02
    282     (1,353)               5.48283657E-02
    283     (1,354)               5.47898384E-02
    284     (1,355)               5.47858251E-02
    285     (1,356)               5.47860926E-02
    286     (1,357)               5.47858251E-02
    287     (1,358)               5.47858251E-02
    288     (1,359)               5.47859589E-02
    289     (1,360)               5.47852900E-02
    290     (1,361)               5.48250214E-02
    291     (1,362)               5.48239512E-02
    292     (1,363)               5.47862264E-02
    293     (1,364)               5.47858251E-02
    294     (1,365)               5.47862264E-02
    295     (1,366)               5.47855575E-02
    296     (1,367)               5.47891695E-02
    297     (1,368)               5.47989351E-02
    298     (1,369)               5.47959920E-02
    299     (1,370)               5.48056239E-02
    300     (1,371)               1.36970248E-02
    301     (1,372)               1.37158872E-02
    302     (1,373)               1.36959546E-02
    303     (1,374)               1.36960884E-02
    304     (1,375)               1.36960884E-02
    305     (1,376)               1.36952857E-02
    306     (1,377)               1.37161547E-02
    307     (1,378)               1.36967573E-02
    308     (1,379)               1.36960884E-02
    309     (1,380)               1.36967573E-02
    310     (1,381)               1.36954195E-02
    311     (1,382)               1.36966235E-02
    312     (1,383)               5.47966609E-02
    313     (1,384)               5.47859589E-02
    314     (1,385)               5.47858251E-02
    315     (1,386)               5.47851562E-02
    316     (1,387)               5.47860926E-02
    317     (1,388)               5.47858251E-02
    318     (1,389)               5.48242187E-02
    319     (1,390)               5.48242187E-02
    320     (1,391)               5.47903735E-02
    321     (1,392)               5.47886344E-02
    322     (1,393)               5.47858251E-02
    323     (1,394)               5.47856913E-02
    324     (1,395)               5.47858251E-02
    325     (1,396)               5.47856913E-02
    326     (1,397)               5.47856913E-02
    327     (1,398)               5.48242187E-02
    328     (1,399)               5.48242187E-02
    329     (1,400)               5.47854238E-02
    330     (1,401)               5.47858251E-02
    331     (1,402)               5.47855575E-02
    332     (1,403)               5.47858251E-02
    333     (1,404)               5.47859589E-02
    334     (1,405)               5.47859589E-02
    335     (1,406)               5.47894370E-02
    336     (1,407)               5.47899721E-02
    337     (1,408)               5.48240849E-02
    338     (1,409)               5.48242187E-02
    339     (1,410)               5.47856913E-02
    340     (1,411)               5.47860926E-02
    341     (1,412)               5.47852900E-02
    342     (1,413)               5.47858251E-02
    343     (1,414)               5.47856913E-02
    344     (1,415)               5.47854238E-02
    345     (1,416)               5.47859589E-02
    346     (1,417)               5.48246200E-02
    347     (1,418)               5.48248876E-02
    348     (1,419)               5.47859589E-02
    349     (1,420)               5.47894370E-02
    350     (1,421)               5.47890357E-02
    351     (1,422)               5.47854238E-02
    352     (1,423)               5.47855575E-02
    353     (1,424)               5.47854238E-02
    354     (1,425)               5.47856913E-02
    355     (1,426)               5.47855575E-02
    356     (1,427)               5.48244863E-02
    357     (1,430)               5.47858251E-02
    358     (1,431)               5.47858251E-02
    359     (1,432)               5.47854238E-02
    360     (1,433)               5.47895708E-02
    361     (1,434)               5.48280982E-02
    362     (1,435)               5.48242187E-02
    363     (1,436)               5.47856913E-02
    364     (1,437)               5.47855575E-02
    365     (1,438)               5.47854238E-02
    366     (1,439)               5.47852900E-02
    367     (1,440)               5.47859589E-02
    368     (1,441)               5.47866277E-02
    369     (1,442)               5.47855575E-02
    370     (1,443)               5.48246200E-02
    371     (1,444)               5.48244863E-02
    372     (1,445)               5.47855575E-02
    373     (1,446)               5.47860926E-02
    374     (1,447)               5.47895708E-02
    375     (1,448)               5.47895708E-02
    376     (1,449)               5.47856913E-02
    377     (1,450)               5.47859589E-02
    378     (1,451)               5.47855575E-02
    379     (1,452)               5.47969285E-02
    380     (1,453)               5.48246200E-02
    381     (1,454)               1.36967573E-02
    382     (1,455)               1.36962222E-02
    383     (1,456)               1.37157534E-02
    384     (1,457)               1.36968910E-02
    385     (1,458)               5.48073630E-02
    386     (1,459)               5.47858251E-02
    387     (1,460)               5.47859589E-02
    388     (1,461)               5.47858251E-02
    389     (1,462)               5.47852900E-02
    390     (1,463)               5.47848887E-02
    391     (1,464)               5.47859589E-02
    392     (1,465)               5.48279644E-02
    393     (1,466)               5.48289009E-02
    394     (1,467)               5.47862264E-02
    395     (1,468)               5.47852900E-02
    396     (1,469)               5.47852900E-02
    397     (1,470)               5.47858251E-02
    398     (1,471)               5.47854238E-02
    399     (1,472)               5.47852900E-02
    400     (1,473)               5.47856913E-02
    401     (1,474)               5.48242187E-02
    402     (1,475)               5.48244863E-02
    403     (1,476)               5.47854238E-02
    404     (1,477)               5.47859589E-02
    405     (1,478)               5.47855575E-02
    406     (1,479)               5.47856913E-02
    407     (1,480)               5.47895708E-02
    408     (1,481)               5.47894370E-02
    409     (1,482)               5.47860926E-02
    410     (1,483)               5.47859589E-02
    411     (1,484)               5.48246200E-02
    412     (1,485)               5.48247538E-02
    413     (1,486)               5.47860926E-02
    414     (1,487)               5.47862264E-02
    415     (1,488)               5.47854238E-02
    416     (1,489)               5.47856913E-02
    417     (1,490)               5.47858251E-02
    418     (1,491)               5.47863602E-02
    419     (1,492)               5.47858251E-02
    420     (1,493)               5.48243525E-02
    421     (1,494)               5.48274293E-02
    422     (1,495)               5.47897046E-02
    423     (1,496)               5.47859589E-02
    424     (1,497)               5.47856913E-02
    425     (1,498)               5.47858251E-02
    426     (1,499)               5.47862264E-02
    427     (1,500)               5.47855575E-02
    428     (1,501)               5.47856913E-02
    429     (1,502)               5.47858251E-02
    430     (1,503)               5.48239512E-02
    431     (1,506)               5.47856913E-02
    432     (1,507)               5.47858251E-02
    433     (1,508)               5.47897046E-02
    434     (1,509)               5.47897046E-02
    435     (1,510)               5.47855575E-02
    436     (1,511)               5.48246200E-02
    437     (1,512)               5.48246200E-02
    438     (1,513)               5.47860926E-02
    439     (1,514)               5.47858251E-02
    440     (1,515)               5.47855575E-02
    441     (1,516)               5.47862264E-02
    442     (1,517)               5.47866277E-02
    443     (1,518)               5.47856913E-02
    444     (1,519)               5.47858251E-02
    445     (1,520)               5.48244863E-02
    446     (1,521)               5.48244863E-02
    447     (1,522)               5.47897046E-02
    448     (1,523)               5.47894370E-02
    449     (1,524)               5.47866277E-02
    450     (1,525)               5.47859589E-02
    451     (1,526)               5.47859589E-02
    452     (1,527)               5.47856913E-02
    453     (1,528)               5.47856913E-02
    454     (1,529)               5.47943867E-02
    455     (1,530)               1.36963559E-02
    456     (1,531)               1.37178938E-02
    457     (1,532)               1.36983626E-02
    458     (1,533)               1.36962222E-02
    459     (1,534)               1.36962222E-02
    460     (1,535)               1.36966235E-02
    461     (1,536)               1.37154859E-02
    462     (1,537)               1.36964897E-02
    463     (1,538)               5.48052226E-02
    464     (1,539)               5.47859589E-02
    465     (1,540)               5.47858251E-02
    466     (1,541)               5.47858251E-02
    467     (1,542)               5.47856913E-02
    468     (1,543)               5.47898384E-02
    469     (1,544)               5.47894370E-02
    470     (1,545)               5.48240849E-02
    471     (1,546)               5.48252889E-02
    472     (1,547)               5.47856913E-02
    473     (1,548)               5.47859589E-02
    474     (1,549)               5.47854238E-02
    475     (1,550)               5.47862264E-02
    476     (1,551)               5.47860926E-02
    477     (1,552)               5.47859589E-02
    478     (1,553)               5.47860926E-02
    479     (1,554)               5.48243525E-02
    480     (1,555)               5.48248876E-02
    481     (1,556)               5.47858251E-02
    482     (1,557)               5.47851562E-02
    483     (1,558)               5.47895708E-02
    484     (1,559)               5.47901059E-02
    485     (1,560)               5.47858251E-02
    486     (1,561)               5.47856913E-02
    487     (1,562)               5.47856913E-02
    488     (1,563)               5.47858251E-02
    489     (1,564)               5.48244863E-02
    490     (1,565)               5.48240849E-02
    491     (1,566)               5.47854238E-02
    492     (1,567)               5.47858251E-02
    493     (1,568)               5.47858251E-02
    494     (1,569)               5.47858251E-02
    495     (1,570)               5.47854238E-02
    496     (1,571)               5.47855575E-02
    497     (1,572)               5.47891695E-02
    498     (1,573)               5.48286333E-02
    499     (1,574)               5.48238174E-02
    500     (1,575)               5.47858251E-02
    501     (1,576)               5.47856913E-02
    502     (1,577)               5.47863602E-02
    503     (1,578)               5.47860926E-02
    504     (1,579)               5.47858251E-02
    505     (1,580)               5.47856913E-02
    506     (1,581)               5.47856913E-02
    507     (1,582)               5.47854238E-02
    508     (1,583)               5.48246200E-02
    509     (1,586)               5.47859589E-02
    510     (1,587)               5.47894370E-02
    511     (1,588)               5.47895708E-02
    512     (1,589)               5.47860926E-02
    513     (1,590)               5.47858251E-02
    514     (1,591)               5.47859589E-02
    515     (1,592)               5.48242187E-02
    516     (1,593)               5.48248876E-02
    517     (1,594)               5.47854238E-02
    518     (1,595)               5.47860926E-02
    519     (1,596)               5.47852900E-02
    520     (1,597)               5.47856913E-02
    521     (1,598)               5.47856913E-02
    522     (1,599)               5.47855575E-02
    523     (1,600)               5.47859589E-02
    524     (1,601)               5.48282320E-02
    525     (1,602)               5.48280982E-02
    526     (1,603)               5.47852900E-02
    527     (1,604)               5.47863602E-02
    528     (1,605)               5.47862264E-02
    529     (1,606)               5.47864940E-02
    530     (1,607)               5.47859589E-02
    531     (1,608)               5.47856913E-02
    532     (1,609)               5.47863602E-02
    533     (1,610)               5.48060252E-02
    534     (1,611)               1.36960884E-02
    535     (1,612)               1.37157534E-02
    536     (1,613)               1.36964897E-02
    537     (1,614)               1.36962222E-02
    538     (1,615)               1.36966235E-02
    539     (1,616)               1.36963559E-02
    540     (1,617)               1.37160210E-02
    541     (1,618)               1.36967573E-02
    542     (1,619)               5.48062928E-02
    543     (1,620)               5.47855575E-02
    544     (1,621)               5.47860926E-02
    545     (1,622)               5.47891695E-02
    546     (1,623)               5.47894370E-02
    547     (1,624)               5.47854238E-02
    548     (1,625)               5.47855575E-02
    549     (1,626)               5.48240849E-02
    550     (1,627)               5.48244863E-02
    551     (1,628)               5.47864940E-02
    552     (1,629)               5.47855575E-02
    553     (1,630)               5.47859589E-02
    554     (1,631)               5.47854238E-02
    555     (1,632)               5.47854238E-02
    556     (1,633)               5.47858251E-02
    557     (1,634)               5.47856913E-02
    558     (1,635)               5.48243525E-02
    559     (1,636)               5.48242187E-02
    560     (1,637)               5.47889019E-02
    561     (1,638)               5.47891695E-02
    562     (1,639)               5.47855575E-02
    563     (1,640)               5.47855575E-02
    564     (1,641)               5.47860926E-02
    565     (1,642)               5.47862264E-02
    566     (1,643)               5.47856913E-02
    567     (1,644)               5.47856913E-02
    568     (1,645)               5.48240849E-02
    569     (1,646)               5.48242187E-02
    570     (1,647)               5.47859589E-02
    571     (1,648)               5.47856913E-02
    572     (1,649)               5.47858251E-02
    573     (1,650)               5.47862264E-02
    574     (1,651)               5.47895708E-02
    575     (1,652)               5.47898384E-02
    576     (1,653)               5.47855575E-02
    577     (1,654)               5.48248876E-02
    578     (1,655)               5.48244863E-02
    579     (1,656)               5.47854238E-02
    580     (1,657)               5.47854238E-02
    581     (1,658)               5.47855575E-02
    582     (1,659)               5.47856913E-02
    583     (1,660)               5.47859589E-02
    584     (1,661)               5.47855575E-02
    585     (1,662)               5.47858251E-02
    586     (1,663)               5.47858251E-02
    587     (1,664)               5.48240849E-02
    588     (1,667)               5.47902397E-02
    589     (1,668)               5.47895708E-02
    590     (1,669)               5.47859589E-02
    591     (1,670)               5.47858251E-02
    592     (1,671)               5.47855575E-02
    593     (1,672)               5.47862264E-02
    594     (1,673)               5.47858251E-02
    595     (1,674)               5.48250214E-02
    596     (1,675)               5.48242187E-02
    597     (1,676)               5.47860926E-02
    598     (1,677)               5.47856913E-02
    599     (1,678)               5.47860926E-02
    600     (1,679)               5.47852900E-02
    601     (1,680)               5.47858251E-02
    602     (1,681)               5.47905072E-02
    603     (1,682)               5.47897046E-02
    604     (1,683)               5.48239512E-02
    605     (1,684)               5.48242187E-02
    606     (1,685)               5.47859589E-02
    607     (1,686)               5.47859589E-02
    608     (1,687)               5.47855575E-02
    609     (1,688)               5.47862264E-02
    610     (1,689)               5.47860926E-02
    611     (1,690)               5.47855575E-02
    612     (1,691)               5.47854238E-02
    613     (1,692)               5.48042861E-02
    614     (1,693)               1.36962222E-02
    615     (1,694)               1.37160210E-02
    616     (1,695)               1.36967573E-02
    617     (1,696)               1.36963559E-02
    618     (1,697)               1.36968910E-02
    619     (1,698)               1.36960884E-02
    620     (1,699)               1.37161547E-02
    621     (1,700)               1.36968910E-02
    622     (1,701)               5.48061590E-02
    623     (1,702)               5.47897046E-02
    624     (1,703)               5.47897046E-02
    625     (1,704)               5.47858251E-02
    626     (1,705)               5.47852900E-02
    627     (1,706)               5.47854238E-02
    628     (1,707)               5.47859589E-02
    629     (1,708)               5.48242187E-02
    630     (1,709)               5.48251551E-02
    631     (1,710)               5.47856913E-02
    632     (1,711)               5.47859589E-02
    633     (1,712)               5.47856913E-02
    634     (1,713)               5.47855575E-02
    635     (1,714)               5.47858251E-02
    636     (1,715)               5.47852900E-02
    637     (1,716)               5.47863602E-02
    638     (1,717)               5.48279644E-02
    639     (1,718)               5.48279644E-02
    640     (1,719)               5.47858251E-02
    641     (1,720)               5.47856913E-02
    642     (1,721)               5.47858251E-02
    643     (1,722)               5.47856913E-02
    644     (1,723)               5.47855575E-02
    645     (1,724)               5.47852900E-02
    646     (1,725)               5.47852900E-02
    647     (1,726)               5.47863602E-02
    648     (1,727)               5.48250214E-02
    649     (1,728)               5.48246200E-02
    650     (1,729)               5.47855575E-02
    651     (1,730)               5.47860926E-02
    652     (1,731)               5.47897046E-02
    653     (1,732)               5.47887681E-02
    654     (1,733)               5.47856913E-02
    655     (1,734)               5.47858251E-02
    656     (1,735)               5.47850224E-02
    657     (1,736)               5.48243525E-02
    658     (1,737)               5.48246200E-02
    659     (1,738)               5.47858251E-02
    660     (1,739)               5.47855575E-02
    661     (1,740)               5.47858251E-02
    662     (1,741)               5.47851562E-02
    663     (1,742)               5.47855575E-02
    664     (1,743)               5.47859589E-02
    665     (1,744)               5.47856913E-02
    666     (1,745)               5.47854238E-02
    667     (1,746)               5.48280982E-02
    668     (1,749)               5.48286333E-02
    669     (1,750)               5.47852900E-02
    670     (1,751)               5.47856913E-02
    671     (1,752)               5.47854238E-02
    672     (1,753)               5.47859589E-02
    673     (1,754)               5.47859589E-02
    674     (1,755)               5.47855575E-02
    675     (1,756)               5.47859589E-02
    676     (1,757)               5.48244863E-02
    677     (1,758)               5.48243525E-02
    678     (1,759)               5.47860926E-02
    679     (1,760)               5.47859589E-02
    680     (1,761)               5.47856913E-02
    681     (1,762)               5.47894370E-02
    682     (1,763)               5.47897046E-02
    683     (1,764)               5.47854238E-02
    684     (1,765)               5.47855575E-02
    685     (1,766)               5.48242187E-02
    686     (1,767)               5.48243525E-02
    687     (1,768)               5.47856913E-02
    688     (1,769)               5.47856913E-02
    689     (1,770)               5.47854238E-02
    690     (1,771)               5.47856913E-02
    691     (1,772)               5.47854238E-02
    692     (1,773)               5.47860926E-02
    693     (1,774)               5.47854238E-02
    694     (1,775)               5.48049550E-02
    695     (1,776)               1.36964897E-02
    696     (1,777)               1.37161547E-02
    697     (1,778)               1.36964897E-02
    698     (1,779)               1.36970248E-02
    699     (1,780)               1.36963559E-02
    700     (1,781)               1.36962222E-02
    701     (1,782)               1.37153521E-02
    702     (1,783)               1.36982288E-02
    703     (1,784)               5.48088345E-02
    704     (1,785)               5.47859589E-02
    705     (1,786)               5.47859589E-02
    706     (1,787)               5.47858251E-02
    707     (1,788)               5.47856913E-02
    708     (1,789)               5.47859589E-02
    709     (1,790)               5.47860926E-02
    710     (1,791)               5.48244863E-02
    711     (1,792)               5.48242187E-02
    712     (1,793)               5.47858251E-02
    713     (1,794)               5.47856913E-02
    714     (1,795)               5.47855575E-02
    715     (1,796)               5.47862264E-02
    716     (1,797)               5.47854238E-02
    717     (1,798)               5.47897046E-02
    718     (1,799)               5.47893032E-02
    719     (1,800)               5.48246200E-02
    720     (1,801)               5.48242187E-02
    721     (1,802)               5.47859589E-02
    722     (1,803)               5.47858251E-02
    723     (1,804)               5.47855575E-02
    724     (1,805)               5.47855575E-02
    725     (1,806)               5.47856913E-02
    726     (1,807)               5.47862264E-02
    727     (1,808)               5.47859589E-02
    728     (1,809)               5.47859589E-02
    729     (1,810)               5.48246200E-02
    730     (1,811)               5.48242187E-02
    731     (1,812)               5.47894370E-02
    732     (1,813)               5.47899721E-02
    733     (1,814)               5.47866277E-02
    734     (1,815)               5.47860926E-02
    735     (1,816)               5.47859589E-02
    736     (1,817)               5.47859589E-02
    737     (1,818)               5.47858251E-02
    738     (1,819)               5.48244863E-02
    739     (1,820)               5.48246200E-02
    740     (1,821)               5.47863602E-02
    741     (1,822)               5.47859589E-02
    742     (1,823)               5.47859589E-02
    743     (1,824)               5.47855575E-02
    744     (1,825)               5.47852900E-02
    745     (1,826)               5.47858251E-02
    746     (1,827)               5.47893032E-02
    747     (1,828)               5.47895708E-02
    748     (1,829)               5.48246200E-02
    749     (1,832)               5.48243525E-02
    750     (1,833)               5.48239512E-02
    751     (1,834)               5.47855575E-02
    752     (1,835)               5.47854238E-02
    753     (1,836)               5.47858251E-02
    754     (1,837)               5.47855575E-02
    755     (1,838)               5.47862264E-02
    756     (1,839)               5.47855575E-02
    757     (1,840)               5.47859589E-02
    758     (1,841)               5.48246200E-02
    759     (1,842)               5.48244863E-02
    760     (1,843)               5.47860926E-02
    761     (1,844)               5.47899721E-02
    762     (1,845)               5.47898384E-02
    763     (1,846)               5.47859589E-02
    764     (1,847)               5.47859589E-02
    765     (1,848)               5.47855575E-02
    766     (1,849)               5.47859589E-02
    767     (1,850)               5.48240849E-02
    768     (1,851)               5.48248876E-02
    769     (1,852)               5.47860926E-02
    770     (1,853)               5.47859589E-02
    771     (1,854)               5.47855575E-02
    772     (1,855)               5.47856913E-02
    773     (1,856)               5.47852900E-02
    774     (1,857)               5.47851562E-02
    775     (1,858)               5.47859589E-02
    776     (1,859)               5.48081656E-02
    777     (1,860)               1.36982288E-02
    778     (1,861)               1.37164223E-02
    779     (1,862)               1.36968910E-02
    780     (1,863)               1.36962222E-02
    781     (1,864)               1.36966235E-02
    782     (1,865)               1.36964897E-02
    783     (1,866)               1.37154859E-02
    784     (1,867)               1.36955533E-02
    785     (1,868)               5.48040186E-02
    786     (1,869)               5.47860926E-02
    787     (1,870)               5.47860926E-02
    788     (1,871)               5.47858251E-02
    789     (1,872)               5.47860926E-02
    790     (1,873)               5.47848887E-02
    791     (1,874)               5.47859589E-02
    792     (1,875)               5.48250214E-02
    793     (1,876)               5.48246200E-02
    794     (1,877)               5.47851562E-02
    795     (1,878)               5.47862264E-02
    796     (1,879)               5.47856913E-02
    797     (1,880)               5.47893032E-02
    798     (1,881)               5.47893032E-02
    799     (1,882)               5.47860926E-02
    800     (1,883)               5.47859589E-02
    801     (1,884)               5.48244863E-02
    802     (1,885)               5.48246200E-02
    803     (1,886)               5.47860926E-02
    804     (1,887)               5.47856913E-02
    805     (1,888)               5.47860926E-02
    806     (1,889)               5.47854238E-02
    807     (1,890)               5.47862264E-02
    808     (1,891)               5.47858251E-02
    809     (1,892)               5.47859589E-02
    810     (1,893)               5.47851562E-02
    811     (1,894)               5.48279644E-02
    812     (1,895)               5.48282320E-02
    813     (1,896)               5.47860926E-02
    814     (1,897)               5.47859589E-02
    815     (1,898)               5.47856913E-02
    816     (1,899)               5.47855575E-02
    817     (1,900)               5.47860926E-02
    818     (1,901)               5.47863602E-02
    819     (1,902)               5.47852900E-02
    820     (1,903)               5.48250214E-02
    821     (1,904)               5.48243525E-02
    822     (1,905)               5.47855575E-02
    823     (1,906)               5.47863602E-02
    824     (1,907)               5.47859589E-02
    825     (1,908)               5.47856913E-02
    826     (1,909)               5.47894370E-02
    827     (1,910)               5.47897046E-02
    828     (1,911)               5.47858251E-02
    829     (1,912)               5.47852900E-02
    830     (1,915)               5.47860926E-02
    831     (1,916)               5.48236836E-02
    832     (1,917)               5.48247538E-02
    833     (1,918)               5.47855575E-02
    834     (1,919)               5.47856913E-02
    835     (1,920)               5.47859589E-02
    836     (1,921)               5.47864940E-02
    837     (1,922)               5.47856913E-02
    838     (1,923)               5.47858251E-02
    839     (1,924)               5.47856913E-02
    840     (1,925)               5.48247538E-02
    841     (1,926)               5.48284995E-02
    842     (1,927)               5.47893032E-02
    843     (1,928)               5.47855575E-02
    844     (1,929)               5.47860926E-02
    845     (1,930)               5.47859589E-02
    846     (1,931)               5.47852900E-02
    847     (1,932)               5.47854238E-02
    848     (1,933)               5.47855575E-02
    849     (1,934)               5.48242187E-02
    850     (1,935)               5.48242187E-02
    851     (1,936)               5.47856913E-02
    852     (1,937)               5.47855575E-02
    853     (1,938)               5.47862264E-02
    854     (1,939)               5.47854238E-02
    855     (1,940)               5.47854238E-02
    856     (1,941)               5.47893032E-02
    857     (1,942)               5.47893032E-02
    858     (1,943)               5.48049550E-02
    859     (1,944)               1.36968910E-02
    860     (1,945)               1.37160210E-02
    861     (1,946)               1.36966235E-02
    862     (1,947)               1.36964897E-02
    863     (1,948)               1.36960884E-02
    864     (1,949)               1.36966235E-02
    865     (1,950)               1.37160210E-02
    866     (1,951)               1.36960884E-02
    867     (1,952)               5.47967947E-02
    868     (1,953)               5.47851562E-02
    869     (1,954)               5.47852900E-02
    870     (1,955)               5.47862264E-02
    871     (1,956)               5.47859589E-02
    872     (1,957)               5.47855575E-02
    873     (1,958)               5.47856913E-02
    874     (1,959)               5.48243525E-02
    875     (1,960)               5.48246200E-02
    876     (1,961)               5.47858251E-02
    877     (1,962)               5.47895708E-02
    878     (1,963)               5.47898384E-02
    879     (1,964)               5.47854238E-02
    880     (1,965)               5.47856913E-02
    881     (1,966)               5.47860926E-02
    882     (1,967)               5.47855575E-02
    883     (1,968)               5.48247538E-02
    884     (1,969)               5.48236836E-02
    885     (1,970)               5.47854238E-02
    886     (1,971)               5.47860926E-02
    887     (1,972)               5.47854238E-02
    888     (1,973)               5.47858251E-02
    889     (1,974)               5.47851562E-02
    890     (1,975)               5.47862264E-02
    891     (1,976)               5.47897046E-02
    892     (1,977)               5.47898384E-02
    893     (1,978)               5.48250214E-02
    894     (1,979)               5.48240849E-02
    895     (1,980)               5.47859589E-02
    896     (1,981)               5.47855575E-02
    897     (1,982)               5.47854238E-02
    898     (1,983)               5.47860926E-02
    899     (1,984)               5.47862264E-02
    900     (1,985)               5.47862264E-02
    901     (1,986)               5.47863602E-02
    902     (1,987)               5.48244863E-02
    903     (1,988)               5.48238174E-02
    904     (1,989)               5.47858251E-02
    905     (1,990)               5.47856913E-02
    906     (1,991)               5.47895708E-02
    907     (1,992)               5.47897046E-02
    908     (1,993)               5.47854238E-02
    909     (1,994)               5.47859589E-02
    910     (1,995)               5.47859589E-02
    911     (1,998)               5.47854238E-02
    912     (1,999)               5.47856913E-02
    913     (1,1000)              5.48240849E-02
    914     (1,1001)              5.48246200E-02
    915     (1,1002)              5.47856913E-02
    916     (1,1003)              5.47855575E-02
    917     (1,1004)              5.47852900E-02
    918     (1,1005)              5.47854238E-02
    919     (1,1006)              5.47858251E-02
    920     (1,1007)              5.47855575E-02
    921     (1,1008)              5.47901059E-02
    922     (1,1009)              5.48290346E-02
    923     (1,1010)              5.48243525E-02
    924     (1,1011)              5.47860926E-02
    925     (1,1012)              5.47863602E-02
    926     (1,1013)              5.47858251E-02
    927     (1,1014)              5.47860926E-02
    928     (1,1015)              5.47854238E-02
    929     (1,1016)              5.47858251E-02
    930     (1,1017)              5.47859589E-02
    931     (1,1018)              5.48243525E-02
    932     (1,1019)              5.48240849E-02
    933     (1,1020)              5.47858251E-02
    934     (1,1021)              5.47852900E-02
    935     (1,1022)              5.47855575E-02
    936     (1,1023)              5.47897046E-02
    937     (1,1024)              5.47899721E-02
    938     (1,1025)              5.47855575E-02
    939     (1,1026)              5.47855575E-02
    940     (1,1027)              5.48048212E-02
    941     (1,1028)              1.36962222E-02
    942     (1,1029)              1.37161547E-02
    943     (1,1030)              1.36972924E-02
    944     (1,1031)              1.36962222E-02
    945     (1,1032)              5.48252889E-02
    946     (1,1033)              5.47858251E-02
    947     (1,1034)              5.47860926E-02
    948     (1,1035)              5.47854238E-02
    949     (1,1036)              5.47856913E-02
    950     (1,1037)              5.47862264E-02
    951     (1,1038)              5.47859589E-02
    952     (1,1039)              5.47859589E-02
    953     (1,1040)              5.48252889E-02
    954     (1,1041)              5.48279644E-02
    955     (1,1042)              5.47894370E-02
    956     (1,1043)              5.47856913E-02
    957     (1,1044)              5.47855575E-02
    958     (1,1045)              5.47855575E-02
    959     (1,1046)              5.47852900E-02
    960     (1,1047)              5.47854238E-02
    961     (1,1048)              5.47859589E-02
    962     (1,1049)              5.48247538E-02
    963     (1,1050)              5.48239512E-02
    964     (1,1051)              5.47854238E-02
    965     (1,1052)              5.47854238E-02
    966     (1,1053)              5.47859589E-02
    967     (1,1054)              5.47856913E-02
    968     (1,1055)              5.47898384E-02
    969     (1,1056)              5.47897046E-02
    970     (1,1057)              5.47859589E-02
    971     (1,1058)              5.47854238E-02
    972     (1,1059)              5.48240849E-02
    973     (1,1060)              5.48242187E-02
    974     (1,1061)              5.47859589E-02
    975     (1,1062)              5.47856913E-02
    976     (1,1063)              5.47863602E-02
    977     (1,1064)              5.47854238E-02
    978     (1,1065)              5.47852900E-02
    979     (1,1066)              5.47858251E-02
    980     (1,1067)              5.47860926E-02
    981     (1,1068)              5.48239512E-02
    982     (1,1069)              5.48248876E-02
    983     (1,1070)              5.47889019E-02
    984     (1,1071)              5.47893032E-02
    985     (1,1072)              5.47862264E-02
    986     (1,1073)              5.47858251E-02
    987     (1,1074)              5.47852900E-02
    988     (1,1075)              5.47855575E-02
    989     (1,1078)              5.47858251E-02
    990     (1,1079)              5.47855575E-02
    991     (1,1080)              5.47860926E-02
    992     (1,1081)              5.48246200E-02
    993     (1,1082)              5.48246200E-02
    994     (1,1083)              5.47858251E-02
    995     (1,1084)              5.47859589E-02
    996     (1,1085)              5.47854238E-02
    997     (1,1086)              5.47856913E-02
    998     (1,1087)              5.47894370E-02
    999     (1,1088)              5.47895708E-02
    1000    (1,1089)              5.47860926E-02
    1001    (1,1090)              5.48239512E-02
    1002    (1,1091)              5.48244863E-02
    1003    (1,1092)              5.47863602E-02
    1004    (1,1093)              5.47854238E-02
    1005    (1,1094)              5.47862264E-02
    1006    (1,1095)              5.47855575E-02
    1007    (1,1096)              5.47860926E-02
    1008    (1,1097)              5.47854238E-02
    1009    (1,1098)              5.47862264E-02
    1010    (1,1099)              5.48242187E-02
    1011    (1,1100)              5.48246200E-02
    1012    (1,1101)              5.47860926E-02
    1013    (1,1102)              5.47897046E-02
    1014    (1,1103)              5.47898384E-02
    1015    (1,1104)              5.47858251E-02
    1016    (1,1105)              5.47858251E-02
    1017    (1,1106)              5.47856913E-02
    1018    (1,1107)              5.47947881E-02
    1019    (1,1108)              1.36967573E-02
    1020    (1,1109)              1.36964897E-02
    1021    (1,1110)              1.36967573E-02
    1022    (1,1111)              1.36966235E-02
    1023    (1,1112)              5.48050888E-02
    1024    (1,1113)              5.48243525E-02
    1025    (1,1114)              5.47859589E-02
    1026    (1,1115)              5.47859589E-02
    1027    (1,1116)              5.47860926E-02
    1028    (1,1117)              5.47860926E-02
    1029    (1,1118)              5.47859589E-02
    1030    (1,1119)              5.47862264E-02
    1031    (1,1120)              5.47894370E-02
    1032    (1,1121)              5.48278306E-02
    1033    (1,1122)              5.48246200E-02
    1034    (1,1123)              5.47856913E-02
    1035    (1,1124)              5.47862264E-02
    1036    (1,1125)              5.47860926E-02
    1037    (1,1126)              5.47858251E-02
    1038    (1,1127)              5.47858251E-02
    1039    (1,1128)              5.47855575E-02
    1040    (1,1129)              5.47854238E-02
    1041    (1,1130)              5.48243525E-02
    1042    (1,1131)              5.48243525E-02
    1043    (1,1132)              5.47858251E-02
    1044    (1,1133)              5.47851562E-02
    1045    (1,1134)              5.47894370E-02
    1046    (1,1135)              5.47899721E-02
    1047    (1,1136)              5.47858251E-02
    1048    (1,1137)              5.47860926E-02
    1049    (1,1138)              5.47859589E-02
    1050    (1,1139)              5.47862264E-02
    1051    (1,1140)              5.48244863E-02
    1052    (1,1141)              5.48248876E-02
    1053    (1,1142)              5.47860926E-02
    1054    (1,1143)              5.47863602E-02
    1055    (1,1144)              5.47856913E-02
    1056    (1,1145)              5.47855575E-02
    1057    (1,1146)              5.47854238E-02
    1058    (1,1147)              5.47858251E-02
    1059    (1,1148)              5.47854238E-02
    1060    (1,1149)              5.48276969E-02
    1061    (1,1150)              5.48280982E-02
    1062    (1,1151)              5.47856913E-02
    1063    (1,1152)              5.47860926E-02
    1064    (1,1153)              5.47856913E-02
    1065    (1,1154)              5.47856913E-02
    1066    (1,1155)              5.47854238E-02
    1067    (1,1158)              5.47859589E-02
    1068    (1,1159)              5.47851562E-02
    1069    (1,1160)              5.47854238E-02
    1070    (1,1161)              5.47859589E-02
    1071    (1,1162)              5.48247538E-02
    1072    (1,1163)              5.48239512E-02
    1073    (1,1164)              5.47862264E-02
    1074    (1,1165)              5.47859589E-02
    1075    (1,1166)              5.47890357E-02
    1076    (1,1167)              5.47890357E-02
    1077    (1,1168)              5.47856913E-02
    1078    (1,1169)              5.47855575E-02
    1079    (1,1170)              5.47862264E-02
    1080    (1,1171)              5.48242187E-02
    1081    (1,1172)              5.48246200E-02
    1082    (1,1173)              5.47852900E-02
    1083    (1,1174)              5.47860926E-02
    1084    (1,1175)              5.47862264E-02
    1085    (1,1176)              5.47854238E-02
    1086    (1,1177)              5.47858251E-02
    1087    (1,1178)              5.47858251E-02
    1088    (1,1179)              5.47863602E-02
    1089    (1,1180)              5.48247538E-02
    1090    (1,1181)              5.48286333E-02
    1091    (1,1182)              5.47893032E-02
    1092    (1,1183)              5.47855575E-02
    1093    (1,1184)              5.47856913E-02
    1094    (1,1185)              5.47863602E-02
    1095    (1,1186)              5.47859589E-02
    1096    (1,1187)              5.47943867E-02
    1097    (1,1188)              1.36958208E-02
    1098    (1,1189)              1.36967573E-02
    1099    (1,1190)              1.36963559E-02
    1100    (1,1191)              1.36968910E-02
    1101    (1,1192)              1.36963559E-02
    1102    (1,1193)              1.36984963E-02
    1103    (1,1194)              1.36986301E-02
    1104    (1,1195)              1.36964897E-02
    1105    (1,1196)              5.48137842E-02
    1106    (1,1197)              5.48244863E-02
    1107    (1,1198)              5.47860926E-02
    1108    (1,1199)              5.47858251E-02
    1109    (1,1200)              5.47858251E-02
    1110    (1,1201)              5.47859589E-02
    1111    (1,1202)              5.47894370E-02
    1112    (1,1203)              5.47897046E-02
    1113    (1,1204)              5.47855575E-02
    1114    (1,1205)              5.48252889E-02
    1115    (1,1206)              5.48246200E-02
    1116    (1,1207)              5.47858251E-02
    1117    (1,1208)              5.47866277E-02
    1118    (1,1209)              5.47855575E-02
    1119    (1,1210)              5.47854238E-02
    1120    (1,1211)              5.47859589E-02
    1121    (1,1212)              5.47856913E-02
    1122    (1,1213)              5.47862264E-02
    1123    (1,1214)              5.48243525E-02
    1124    (1,1215)              5.48247538E-02
    1125    (1,1216)              5.47889019E-02
    1126    (1,1217)              5.47893032E-02
    1127    (1,1218)              5.47856913E-02
    1128    (1,1219)              5.47855575E-02
    1129    (1,1220)              5.47860926E-02
    1130    (1,1221)              5.47856913E-02
    1131    (1,1222)              5.47860926E-02
    1132    (1,1223)              5.47860926E-02
    1133    (1,1224)              5.48246200E-02
    1134    (1,1225)              5.48247538E-02
    1135    (1,1226)              5.47859589E-02
    1136    (1,1227)              5.47862264E-02
    1137    (1,1228)              5.47863602E-02
    1138    (1,1229)              5.47860926E-02
    1139    (1,1230)              5.47855575E-02
    1140    (1,1231)              5.47897046E-02
    1141    (1,1232)              5.47903735E-02
    1142    (1,1233)              5.48247538E-02
    1143    (1,1234)              5.48244863E-02
    1144    (1,1235)              5.47851562E-02
    1145    (1,1236)              5.47854238E-02
    1146    (1,1237)              5.47860926E-02
    1147    (1,1238)              5.47858251E-02
    1148    (1,1241)              5.47855575E-02
    1149    (1,1242)              5.47855575E-02
    1150    (1,1243)              5.47850224E-02
    1151    (1,1244)              5.47859589E-02
    1152    (1,1245)              5.47856913E-02
    1153    (1,1246)              5.48248876E-02
    1154    (1,1247)              5.48248876E-02
    1155    (1,1248)              5.47902397E-02
    1156    (1,1249)              5.47901059E-02
    1157    (1,1250)              5.47860926E-02
    1158    (1,1251)              5.47860926E-02
    1159    (1,1252)              5.47858251E-02
    1160    (1,1253)              5.47856913E-02
    1161    (1,1254)              5.47855575E-02
    1162    (1,1255)              5.48248876E-02
    1163    (1,1256)              5.48244863E-02
    1164    (1,1257)              5.47860926E-02
    1165    (1,1258)              5.47859589E-02
    1166    (1,1259)              5.47863602E-02
    1167    (1,1260)              5.47858251E-02
    1168    (1,1261)              5.47862264E-02
    1169    (1,1262)              5.47856913E-02
    1170    (1,1263)              5.47906410E-02
    1171    (1,1264)              5.48275631E-02
    1172    (1,1265)              5.48240849E-02
    1173    (1,1266)              5.47863602E-02
    1174    (1,1267)              5.47856913E-02
    1175    (1,1268)              5.47860926E-02
    1176    (1,1269)              5.47860926E-02
    1177    (1,1270)              5.47860926E-02
    1178    (1,1271)              5.48069616E-02
    1179    (1,1272)              1.36956871E-02
    1180    (1,1273)              1.36970248E-02
    1181    (1,1274)              1.36962222E-02
    1182    (1,1275)              1.36962222E-02
    1183    (1,1276)              5.47749893E-02
    1184    (1,1277)              5.48248876E-02
    1185    (1,1278)              5.48248876E-02
    1186    (1,1279)              5.47859589E-02
    1187    (1,1280)              5.47854238E-02
    1188    (1,1281)              5.47902397E-02
    1189    (1,1282)              5.47899721E-02
    1190    (1,1283)              5.47863602E-02
    1191    (1,1284)              5.47854238E-02
    1192    (1,1285)              5.47862264E-02
    1193    (1,1286)              5.48242187E-02
    1194    (1,1287)              5.48246200E-02
    1195    (1,1288)              5.47864940E-02
    1196    (1,1289)              5.47860926E-02
    1197    (1,1290)              5.47856913E-02
    1198    (1,1291)              5.47855575E-02
    1199    (1,1292)              5.47855575E-02
    1200    (1,1293)              5.47855575E-02
    1201    (1,1294)              5.47858251E-02
    1202    (1,1295)              5.48279644E-02
    1203    (1,1296)              5.48282320E-02
    1204    (1,1297)              5.47856913E-02
    1205    (1,1298)              5.47862264E-02
    1206    (1,1299)              5.47862264E-02
    1207    (1,1300)              5.47859589E-02
    1208    (1,1301)              5.47858251E-02
    1209    (1,1302)              5.47860926E-02
    1210    (1,1303)              5.47858251E-02
    1211    (1,1304)              5.47862264E-02
    1212    (1,1305)              5.48247538E-02
    1213    (1,1306)              5.48244863E-02
    1214    (1,1307)              5.47860926E-02
    1215    (1,1308)              5.47858251E-02
    1216    (1,1309)              5.47856913E-02
    1217    (1,1310)              5.47897046E-02
    1218    (1,1311)              5.47895708E-02
    1219    (1,1312)              5.47854238E-02
    1220    (1,1313)              5.47858251E-02
    1221    (1,1314)              5.48247538E-02
    1222    (1,1315)              5.48239512E-02
    1223    (1,1316)              5.47856913E-02
    1224    (1,1317)              5.47852900E-02
    1225    (1,1318)              5.47863602E-02
    1226    (1,1320)              5.47866277E-02
    1227    (1,1321)              5.47859589E-02
    1228    (1,1322)              5.47863602E-02
    1229    (1,1323)              5.47860926E-02
    1230    (1,1324)              5.47855575E-02
    1231    (1,1325)              5.47863602E-02
    1232    (1,1326)              5.48287671E-02
    1233    (1,1327)              5.48282320E-02
    1234    (1,1328)              5.47858251E-02
    1235    (1,1329)              5.47855575E-02
    1236    (1,1330)              5.47856913E-02
    1237    (1,1331)              5.47856913E-02
    1238    (1,1332)              5.47858251E-02
    1239    (1,1333)              5.47858251E-02
    1240    (1,1334)              5.47859589E-02
    1241    (1,1335)              5.48243525E-02
    1242    (1,1336)              5.48250214E-02
    1243    (1,1337)              5.47858251E-02
    1244    (1,1338)              5.47852900E-02
    1245    (1,1339)              5.47860926E-02
    1246    (1,1340)              5.47859589E-02
    1247    (1,1341)              5.47893032E-02
    1248    (1,1342)              5.47898384E-02
    1249    (1,1343)              5.47858251E-02
    1250    (1,1344)              5.48246200E-02
    1251    (1,1345)              5.48239512E-02
    1252    (1,1346)              5.47856913E-02
    1253    (1,1347)              5.47851562E-02
    1254    (1,1348)              5.47854238E-02
    1255    (1,1349)              5.47855575E-02
    1256    (1,1350)              5.48062928E-02
    1257    (1,1351)              1.36968910E-02
    1258    (1,1352)              1.36964897E-02
    1259    (1,1353)              1.36962222E-02
    1260    (1,1354)              1.36966235E-02
    1261    (1,1355)              5.47761932E-02
    1262    (1,1356)              5.47858251E-02
    1263    (1,1357)              5.48244863E-02
    1264    (1,1358)              5.48239512E-02
    1265    (1,1359)              5.47894370E-02
    1266    (1,1360)              5.47901059E-02
    1267    (1,1361)              5.47859589E-02
    1268    (1,1362)              5.47862264E-02
    1269    (1,1363)              5.47859589E-02
    1270    (1,1364)              5.47860926E-02
    1271    (1,1365)              5.47755244E-02
    1272    (1,1366)              5.48136504E-02
    1273    (1,1367)              5.48242187E-02
    1274    (1,1368)              5.47858251E-02
    1275    (1,1369)              5.47858251E-02
    1276    (1,1370)              5.47858251E-02
    1277    (1,1371)              5.47854238E-02
    1278    (1,1372)              5.47856913E-02
    1279    (1,1373)              5.47897046E-02
    1280    (1,1374)              5.47894370E-02
    1281    (1,1375)              5.48246200E-02
    1282    (1,1376)              5.48246200E-02
    1283    (1,1377)              5.47858251E-02
    1284    (1,1378)              5.47858251E-02
    1285    (1,1379)              5.47859589E-02
    1286    (1,1380)              5.47855575E-02
    1287    (1,1381)              5.47856913E-02
    1288    (1,1382)              5.47854238E-02
    1289    (1,1383)              5.47856913E-02
    1290    (1,1384)              5.47852900E-02
    1291    (1,1385)              5.48240849E-02
    1292    (1,1386)              5.48243525E-02
    1293    (1,1387)              5.47858251E-02
    1294    (1,1388)              5.47894370E-02
    1295    (1,1389)              5.47895708E-02
    1296    (1,1390)              5.47860926E-02
    1297    (1,1391)              5.47858251E-02
    1298    (1,1392)              5.47864940E-02
    1299    (1,1393)              5.47856913E-02
    1300    (1,1394)              5.48244863E-02
    1301    (1,1395)              5.48243525E-02
    1302    (1,1396)              5.47859589E-02
    1303    (1,1397)              5.47856913E-02
    1304    (1,1400)              5.47858251E-02
    1305    (1,1401)              5.47863602E-02
    1306    (1,1402)              5.47862264E-02
    1307    (1,1403)              5.47897046E-02
    1308    (1,1404)              5.47899721E-02
    1309    (1,1405)              5.48242187E-02
    1310    (1,1406)              5.48243525E-02
    1311    (1,1407)              5.47855575E-02
    1312    (1,1408)              5.47854238E-02
    1313    (1,1409)              5.47858251E-02
    1314    (1,1410)              5.47858251E-02
    1315    (1,1411)              5.47855575E-02
    1316    (1,1412)              5.47858251E-02
    1317    (1,1413)              5.47859589E-02
    1318    (1,1414)              5.48244863E-02
    1319    (1,1415)              5.48247538E-02
    1320    (1,1416)              5.47859589E-02
    1321    (1,1417)              5.47862264E-02
    1322    (1,1418)              5.47899721E-02
    1323    (1,1419)              5.47887681E-02
    1324    (1,1420)              5.47860926E-02
    1325    (1,1421)              5.47858251E-02
    1326    (1,1422)              5.47855575E-02
    1327    (1,1423)              5.48246200E-02
    1328    (1,1424)              5.48246200E-02
    1329    (1,1425)              5.47860926E-02
    1330    (1,1426)              5.47860926E-02
    1331    (1,1427)              5.47773972E-02
    1332    (1,1428)              1.36964897E-02
    1333    (1,1429)              1.36966235E-02
    1334    (1,1430)              1.36960884E-02
    1335    (1,1431)              1.36963559E-02
    1336    (1,1432)              1.37160210E-02
    1337    (1,1433)              1.36967573E-02
    1338    (1,1434)              1.36967573E-02
    1339    (1,1435)              1.37153521E-02
    1340    (1,1436)              5.47661601E-02
    1341    (1,1437)              5.47855575E-02
    1342    (1,1438)              5.47854238E-02
    1343    (1,1439)              5.48283657E-02
    1344    (1,1440)              5.48278306E-02
    1345    (1,1441)              5.47858251E-02
    1346    (1,1442)              5.47860926E-02
    1347    (1,1443)              5.47859589E-02
    1348    (1,1444)              5.47862264E-02
    1349    (1,1445)              5.47840860E-02
    1350    (1,1446)              1.36967573E-02
    1351    (1,1447)              1.36967573E-02
    1352    (1,1448)              1.36967573E-02
    1353    (1,1449)              1.36967573E-02
    1354    (1,1450)              1.36959546E-02
    1355    (1,1451)              1.36986301E-02
    1356    (1,1452)              1.36983626E-02
    1357    (1,1453)              1.36967573E-02
    1358    (1,1454)              5.48044199E-02
    1359    (1,1455)              5.48250214E-02
    1360    (1,1456)              5.47858251E-02
    1361    (1,1457)              5.47855575E-02
    1362    (1,1458)              5.47858251E-02
    1363    (1,1459)              5.47858251E-02
    1364    (1,1460)              5.47898384E-02
    1365    (1,1461)              5.47860926E-02
    1366    (1,1462)              5.47859589E-02
    1367    (1,1463)              5.48250214E-02
    1368    (1,1464)              5.48244863E-02
    1369    (1,1465)              5.47859589E-02
    1370    (1,1466)              5.47859589E-02
    1371    (1,1467)              5.47855575E-02
    1372    (1,1468)              5.47856913E-02
    1373    (1,1469)              5.47858251E-02
    1374    (1,1470)              5.47859589E-02
    1375    (1,1471)              5.47860926E-02
    1376    (1,1472)              5.47862264E-02
    1377    (1,1473)              5.48250214E-02
    1378    (1,1474)              5.48287671E-02
    1379    (1,1475)              5.47895708E-02
    1380    (1,1476)              5.47856913E-02
    1381    (1,1477)              5.47858251E-02
    1382    (1,1478)              5.47862264E-02
    1383    (1,1479)              5.47858251E-02
    1384    (1,1480)              5.47855575E-02
    1385    (1,1481)              5.47858251E-02
    1386    (1,1482)              5.48247538E-02
    1387    (1,1483)              5.48244863E-02
    1388    (1,1484)              5.47851562E-02
    1389    (1,1487)              5.47858251E-02
    1390    (1,1488)              5.47902397E-02
    1391    (1,1489)              5.47898384E-02
    1392    (1,1490)              5.47859589E-02
    1393    (1,1491)              5.47860926E-02
    1394    (1,1492)              5.48240849E-02
    1395    (1,1493)              5.48242187E-02
    1396    (1,1494)              5.47854238E-02
    1397    (1,1495)              5.47855575E-02
    1398    (1,1496)              5.47859589E-02
    1399    (1,1497)              5.47855575E-02
    1400    (1,1498)              5.47856913E-02
    1401    (1,1499)              5.47858251E-02
    1402    (1,1500)              5.47859589E-02
    1403    (1,1501)              5.48247538E-02
    1404    (1,1502)              5.48247538E-02
    1405    (1,1503)              5.47901059E-02
    1406    (1,1504)              5.47897046E-02
    1407    (1,1505)              5.47851562E-02
    1408    (1,1506)              5.47854238E-02
    1409    (1,1507)              5.47856913E-02
    1410    (1,1508)              5.47854238E-02
    1411    (1,1509)              5.47856913E-02
    1412    (1,1510)              5.48244863E-02
    1413    (1,1511)              5.48244863E-02
    1414    (1,1512)              5.47859589E-02
    1415    (1,1513)              5.47773972E-02
    1416    (1,1514)              1.36962222E-02
    1417    (1,1515)              1.36967573E-02
    1418    (1,1516)              1.36960884E-02
    1419    (1,1517)              1.36960884E-02
    1420    (1,1518)              1.36966235E-02
    1421    (1,1519)              1.36972924E-02
    1422    (1,1520)              1.36967573E-02
    1423    (1,1521)              1.36964897E-02
    1424    (1,1522)              1.37161547E-02
    1425    (1,1523)              1.36964897E-02
    1426    (1,1524)              1.36966235E-02
    1427    (1,1525)              1.37164223E-02
    1428    (1,1526)              5.47666952E-02
    1429    (1,1527)              5.47798052E-02
    1430    (1,1528)              5.47777985E-02
    1431    (1,1529)              5.48140517E-02
    1432    (1,1530)              5.48234160E-02
    1433    (1,1531)              5.47947881E-02
    1434    (1,1532)              5.47945205E-02
    1435    (1,1533)              5.47834171E-02
    1436    (1,1534)              1.37154859E-02
    1437    (1,1535)              1.36967573E-02
    1438    (1,1536)              1.36968910E-02
    1439    (1,1537)              1.37160210E-02
    1440    (1,1538)              1.36966235E-02
    1441    (1,1539)              1.36983626E-02
    1442    (1,1540)              1.36986301E-02
    1443    (1,1541)              1.36967573E-02
    1444    (1,1542)              1.36962222E-02
    1445    (1,1543)              1.36959546E-02
    1446    (1,1544)              1.36964897E-02
    1447    (1,1545)              1.36962222E-02
    1448    (1,1546)              1.36966235E-02
    1449    (1,1547)              1.36959546E-02
    1450    (1,1548)              1.36964897E-02
    1451    (1,1549)              1.36958208E-02
    1452    (1,1550)              5.48140517E-02
    1453    (1,1551)              5.48240849E-02
    1454    (1,1552)              5.47858251E-02
    1455    (1,1553)              5.47862264E-02
    1456    (1,1554)              5.47893032E-02
    1457    (1,1555)              5.47894370E-02
    1458    (1,1556)              5.47860926E-02
    1459    (1,1557)              5.47859589E-02
    1460    (1,1558)              5.47860926E-02
    1461    (1,1559)              5.48250214E-02
    1462    (1,1560)              5.48243525E-02
    1463    (1,1561)              5.47856913E-02
    1464    (1,1562)              5.47863602E-02
    1465    (1,1563)              5.47860926E-02
    1466    (1,1564)              5.47856913E-02
    1467    (1,1565)              5.47859589E-02
    1468    (1,1566)              5.47859589E-02
    1469    (1,1567)              5.47855575E-02
    1470    (1,1568)              5.47898384E-02
    1471    (1,1569)              5.48283657E-02
    1472    (1,1570)              5.48246200E-02
    1473    (1,1571)              5.47860926E-02
    1474    (1,1572)              5.47855575E-02
    1475    (1,1573)              5.47862264E-02
    1476    (1,1574)              5.47855575E-02
    1477    (1,1575)              5.47859589E-02
    1478    (1,1576)              5.47855575E-02
    1479    (1,1577)              5.47859589E-02
    1480    (1,1578)              5.48238174E-02
    1481    (1,1579)              5.48242187E-02
    1482    (1,1582)              5.47898384E-02
    1483    (1,1583)              5.47858251E-02
    1484    (1,1584)              5.47858251E-02
    1485    (1,1585)              5.47852900E-02
    1486    (1,1586)              5.47856913E-02
    1487    (1,1587)              5.48244863E-02
    1488    (1,1588)              5.48248876E-02
    1489    (1,1589)              5.47855575E-02
    1490    (1,1590)              5.47855575E-02
    1491    (1,1591)              5.47852900E-02
    1492    (1,1592)              5.47855575E-02
    1493    (1,1593)              5.47860926E-02
    1494    (1,1594)              5.47858251E-02
    1495    (1,1595)              5.47863602E-02
    1496    (1,1596)              5.48282320E-02
    1497    (1,1597)              5.48280982E-02
    1498    (1,1598)              5.47860926E-02
    1499    (1,1599)              5.47860926E-02
    1500    (1,1600)              5.47862264E-02
    1501    (1,1601)              5.47859589E-02
    1502    (1,1602)              5.47863602E-02
    1503    (1,1603)              5.47855575E-02
    1504    (1,1604)              5.47858251E-02
    1505    (1,1605)              5.48244863E-02
    1506    (1,1606)              5.48244863E-02
    1507    (1,1607)              5.47858251E-02
    1508    (1,1608)              5.47753906E-02
    1509    (1,1609)              5.47664276E-02
    1510    (1,1610)              1.36966235E-02
    1511    (1,1611)              1.36958208E-02
    1512    (1,1612)              1.36963559E-02
    1513    (1,1613)              1.36963559E-02
    1514    (1,1614)              1.37158872E-02
    1515    (1,1615)              1.36963559E-02
    1516    (1,1616)              1.36962222E-02
    1517    (1,1617)              1.37180276E-02
    1518    (1,1618)              1.36976937E-02
    1519    (1,1619)              1.36966235E-02
    1520    (1,1620)              1.36958208E-02
    1521    (1,1621)              1.36962222E-02
    1522    (1,1622)              1.36966235E-02
    1523    (1,1623)              1.36966235E-02
    1524    (1,1624)              1.36963559E-02
    1525    (1,1625)              1.36962222E-02
    1526    (1,1626)              1.36966235E-02
    1527    (1,1627)              1.36960884E-02
    1528    (1,1628)              1.36963559E-02
    1529    (1,1629)              1.36968910E-02
    1530    (1,1630)              1.36962222E-02
    1531    (1,1631)              1.37152183E-02
    1532    (1,1632)              1.36962222E-02
    1533    (1,1633)              1.36966235E-02
    1534    (1,1634)              1.36960884E-02
    1535    (1,1635)              1.36966235E-02
    1536    (1,1636)              1.37153521E-02
    1537    (1,1637)              1.36962222E-02
    1538    (1,1638)              1.36956871E-02
    1539    (1,1639)              1.36964897E-02
    1540    (1,1640)              1.36966235E-02
    1541    (1,1641)              1.36967573E-02
    1542    (1,1642)              1.36962222E-02
    1543    (1,1643)              1.36967573E-02
    1544    (1,1644)              1.36964897E-02
    1545    (1,1645)              1.36963559E-02
    1546    (1,1646)              1.36962222E-02
    1547    (1,1647)              1.36982288E-02
    1548    (1,1648)              1.36980950E-02
    1549    (1,1649)              1.36962222E-02
    1550    (1,1650)              1.37154859E-02
    1551    (1,1651)              1.36956871E-02
    1552    (1,1652)              1.36968910E-02
    1553    (1,1653)              1.37154859E-02
    1554    (1,1654)              1.36959546E-02
    1555    (1,1655)              1.36964897E-02
    1556    (1,1656)              1.36967573E-02
    1557    (1,1657)              1.36966235E-02
    1558    (1,1658)              1.36962222E-02
    1559    (1,1659)              1.36964897E-02
    1560    (1,1660)              1.36959546E-02
    1561    (1,1661)              1.36966235E-02
    1562    (1,1662)              5.47657587E-02
    1563    (1,1663)              5.48244863E-02
    1564    (1,1664)              5.48242187E-02
    1565    (1,1665)              5.47893032E-02
    1566    (1,1666)              5.47898384E-02
    1567    (1,1667)              5.47855575E-02
    1568    (1,1668)              5.47856913E-02
    1569    (1,1669)              5.47856913E-02
    1570    (1,1670)              5.47852900E-02
    1571    (1,1671)              5.47856913E-02
    1572    (1,1672)              5.48240849E-02
    1573    (1,1673)              5.48244863E-02
    1574    (1,1674)              5.47854238E-02
    1575    (1,1675)              5.47855575E-02
    1576    (1,1676)              5.47855575E-02
    1577    (1,1677)              5.47854238E-02
    1578    (1,1678)              5.47860926E-02
    1579    (1,1679)              5.47891695E-02
    1580    (1,1680)              5.47901059E-02
    1581    (1,1681)              5.47856913E-02
    1582    (1,1682)              5.48240849E-02
    1583    (1,1683)              5.48242187E-02
    1584    (1,1684)              5.47854238E-02
    1585    (1,1685)              5.47863602E-02
    1586    (1,1686)              5.47855575E-02
    1587    (1,1687)              5.47855575E-02
    1588    (1,1688)              5.47856913E-02
    1589    (1,1689)              5.47860926E-02
    1590    (1,1690)              5.47858251E-02
    1591    (1,1691)              5.48244863E-02
    1592    (1,1694)              5.47855575E-02
    1593    (1,1695)              5.47863602E-02
    1594    (1,1696)              5.47860926E-02
    1595    (1,1697)              5.47859589E-02
    1596    (1,1698)              5.47860926E-02
    1597    (1,1699)              5.48246200E-02
    1598    (1,1700)              5.48242187E-02
    1599    (1,1701)              5.47856913E-02
    1600    (1,1702)              5.47864940E-02
    1601    (1,1703)              5.47860926E-02
    1602    (1,1704)              5.47856913E-02
    1603    (1,1705)              5.47856913E-02
    1604    (1,1706)              5.47898384E-02
    1605    (1,1707)              5.47893032E-02
    1606    (1,1708)              5.48244863E-02
    1607    (1,1709)              5.48244863E-02
    1608    (1,1710)              5.47860926E-02
    1609    (1,1711)              5.47856913E-02
    1610    (1,1712)              5.47858251E-02
    1611    (1,1713)              5.47860926E-02
    1612    (1,1714)              5.47856913E-02
    1613    (1,1715)              5.47854238E-02
    1614    (1,1716)              5.47856913E-02
    1615    (1,1717)              5.48244863E-02
    1616    (1,1718)              5.48240849E-02
    1617    (1,1719)              5.47855575E-02
    1618    (1,1720)              5.47856913E-02
    1619    (1,1721)              5.47784674E-02
    1620    (1,1722)              5.47802065E-02
    1621    (1,1723)              5.47959920E-02
    1622    (1,1724)              5.47971960E-02
    1623    (1,1725)              5.47962596E-02
    1624    (1,1726)              5.47962596E-02
    1625    (1,1727)              5.48251551E-02
    1626    (1,1728)              5.48160584E-02
    1627    (1,1729)              5.47775310E-02
    1628    (1,1730)              5.47653574E-02
    1629    (1,1731)              1.36964897E-02
    1630    (1,1732)              1.36964897E-02
    1631    (1,1733)              1.36970248E-02
    1632    (1,1734)              1.36962222E-02
    1633    (1,1735)              1.37153521E-02
    1634    (1,1736)              1.36964897E-02
    1635    (1,1737)              1.36964897E-02
    1636    (1,1738)              1.37157534E-02
    1637    (1,1739)              1.36956871E-02
    1638    (1,1740)              1.36960884E-02
    1639    (1,1741)              1.36964897E-02
    1640    (1,1742)              1.36966235E-02
    1641    (1,1743)              1.36968910E-02
    1642    (1,1744)              1.36968910E-02
    1643    (1,1745)              1.36962222E-02
    1644    (1,1746)              1.36967573E-02
    1645    (1,1747)              5.47745879E-02
    1646    (1,1748)              5.48284995E-02
    1647    (1,1749)              5.48284995E-02
    1648    (1,1750)              5.47858251E-02
    1649    (1,1751)              5.47858251E-02
    1650    (1,1752)              5.47864940E-02
    1651    (1,1753)              5.47860926E-02
    1652    (1,1754)              5.47858251E-02
    1653    (1,1755)              5.47855575E-02
    1654    (1,1756)              5.47859589E-02
    1655    (1,1757)              5.48244863E-02
    1656    (1,1758)              5.48248876E-02
    1657    (1,1759)              5.47858251E-02
    1658    (1,1760)              5.47856913E-02
    1659    (1,1761)              5.47862264E-02
    1660    (1,1762)              5.47895708E-02
    1661    (1,1763)              5.47897046E-02
    1662    (1,1764)              5.47860926E-02
    1663    (1,1765)              5.47858251E-02
    1664    (1,1766)              5.47860926E-02
    1665    (1,1767)              5.48247538E-02
    1666    (1,1768)              5.48247538E-02
    1667    (1,1769)              5.47858251E-02
    1668    (1,1770)              5.47859589E-02
    1669    (1,1771)              5.47862264E-02
    1670    (1,1772)              5.47864940E-02
    1671    (1,1773)              5.47860926E-02
    1672    (1,1774)              5.47860926E-02
    1673    (1,1775)              5.47852900E-02
    1674    (1,1778)              5.47858251E-02
    1675    (1,1779)              5.47862264E-02
    1676    (1,1780)              5.47854238E-02
    1677    (1,1781)              5.47852900E-02
    1678    (1,1782)              5.47859589E-02
    1679    (1,1783)              5.48247538E-02
    1680    (1,1784)              5.48242187E-02
    1681    (1,1785)              5.47855575E-02
    1682    (1,1786)              5.47855575E-02
    1683    (1,1787)              5.47851562E-02
    1684    (1,1788)              5.47894370E-02
    1685    (1,1789)              5.47898384E-02
    1686    (1,1790)              5.47856913E-02
    1687    (1,1791)              5.47856913E-02
    1688    (1,1792)              5.48238174E-02
    1689    (1,1793)              5.48248876E-02
    1690    (1,1794)              5.47858251E-02
    1691    (1,1795)              5.47855575E-02
    1692    (1,1796)              5.47860926E-02
    1693    (1,1797)              5.47859589E-02
    1694    (1,1798)              5.47863602E-02
    1695    (1,1799)              5.47860926E-02
    1696    (1,1800)              5.47858251E-02
    1697    (1,1801)              5.48236836E-02
    1698    (1,1802)              5.48244863E-02
    1699    (1,1803)              5.47886344E-02
    1700    (1,1804)              5.47895708E-02
    1701    (1,1805)              5.47855575E-02
    1702    (1,1806)              5.47862264E-02
    1703    (1,1807)              5.47859589E-02
    1704    (1,1808)              5.47852900E-02
    1705    (1,1809)              5.47854238E-02
    1706    (1,1810)              5.47854238E-02
    1707    (1,1811)              5.48242187E-02
    1708    (1,1812)              5.48242187E-02
    1709    (1,1813)              5.47856913E-02
    1710    (1,1814)              5.47748555E-02
    1711    (1,1815)              5.47777985E-02
    1712    (1,1816)              1.37153521E-02
    1713    (1,1817)              1.36966235E-02
    1714    (1,1818)              1.36966235E-02
    1715    (1,1819)              1.37158872E-02
    1716    (1,1820)              1.36960884E-02
    1717    (1,1821)              1.36963559E-02
    1718    (1,1822)              1.36960884E-02
    1719    (1,1823)              1.36962222E-02
    1720    (1,1824)              5.47790025E-02
    1721    (1,1825)              5.47895708E-02
    1722    (1,1826)              5.48251551E-02
    1723    (1,1827)              5.48242187E-02
    1724    (1,1828)              5.47852900E-02
    1725    (1,1829)              5.47859589E-02
    1726    (1,1830)              5.47860926E-02
    1727    (1,1831)              5.47848887E-02
    1728    (1,1832)              5.47852900E-02
    1729    (1,1833)              5.47856913E-02
    1730    (1,1834)              5.47855575E-02
    1731    (1,1835)              5.48243525E-02
    1732    (1,1836)              5.48243525E-02
    1733    (1,1837)              5.47856913E-02
    1734    (1,1838)              5.47898384E-02
    1735    (1,1839)              5.47890357E-02
    1736    (1,1840)              5.47858251E-02
    1737    (1,1841)              5.47859589E-02
    1738    (1,1842)              5.47860926E-02
    1739    (1,1843)              5.47856913E-02
    1740    (1,1844)              5.47859589E-02
    1741    (1,1845)              5.48246200E-02
    1742    (1,1846)              5.48240849E-02
    1743    (1,1847)              5.47854238E-02
    1744    (1,1848)              5.47858251E-02
    1745    (1,1849)              5.47852900E-02
    1746    (1,1850)              5.47855575E-02
    1747    (1,1851)              5.47855575E-02
    1748    (1,1852)              5.47856913E-02
    1749    (1,1855)              5.47852900E-02
    1750    (1,1856)              5.47852900E-02
    1751    (1,1857)              5.47856913E-02
    1752    (1,1858)              5.47859589E-02
    1753    (1,1859)              5.47855575E-02
    1754    (1,1860)              5.48243525E-02
    1755    (1,1861)              5.48243525E-02
    1756    (1,1862)              5.47856913E-02
    1757    (1,1863)              5.47891695E-02
    1758    (1,1864)              5.47897046E-02
    1759    (1,1865)              5.47858251E-02
    1760    (1,1866)              5.47858251E-02
    1761    (1,1867)              5.47859589E-02
    1762    (1,1868)              5.47858251E-02
    1763    (1,1869)              5.48243525E-02
    1764    (1,1870)              5.48239512E-02
    1765    (1,1871)              5.47859589E-02
    1766    (1,1872)              5.47862264E-02
    1767    (1,1873)              5.47854238E-02
    1768    (1,1874)              5.47852900E-02
    1769    (1,1875)              5.47859589E-02
    1770    (1,1876)              5.47856913E-02
    1771    (1,1877)              5.47859589E-02
    1772    (1,1878)              5.48275631E-02
    1773    (1,1879)              5.48276969E-02
    1774    (1,1880)              5.47858251E-02
    1775    (1,1881)              5.47860926E-02
    1776    (1,1882)              5.47858251E-02
    1777    (1,1883)              5.47854238E-02
    1778    (1,1884)              5.47856913E-02
    1779    (1,1885)              5.47855575E-02
    1780    (1,1886)              5.47859589E-02
    1781    (1,1887)              5.47854238E-02
    1782    (1,1888)              5.48248876E-02
    1783    (1,1889)              5.48246200E-02
    1784    (1,1890)              5.47767283E-02
    1785    (1,1891)              1.36958208E-02
    1786    (1,1892)              1.36959546E-02
    1787    (1,1893)              1.36960884E-02
    1788    (1,1894)              1.36963559E-02
    1789    (1,1895)              1.36963559E-02
    1790    (1,1896)              1.36964897E-02
    1791    (1,1897)              1.36966235E-02
    1792    (1,1898)              1.36964897E-02
    1793    (1,1899)              5.48066941E-02
    1794    (1,1900)              5.47893032E-02
    1795    (1,1901)              5.47854238E-02
    1796    (1,1902)              5.47854238E-02
    1797    (1,1903)              5.48244863E-02
    1798    (1,1904)              5.48247538E-02
    1799    (1,1905)              5.47858251E-02
    1800    (1,1906)              5.47862264E-02
    1801    (1,1907)              5.47862264E-02
    1802    (1,1908)              5.47863602E-02
    1803    (1,1909)              5.47859589E-02
    1804    (1,1910)              5.47860926E-02
    1805    (1,1911)              5.47851562E-02
    1806    (1,1912)              5.48239512E-02
    1807    (1,1913)              5.48282320E-02
    1808    (1,1914)              5.47895708E-02
    1809    (1,1915)              5.47858251E-02
    1810    (1,1916)              5.47858251E-02
    1811    (1,1917)              5.47858251E-02
    1812    (1,1918)              5.47860926E-02
    1813    (1,1919)              5.47858251E-02
    1814    (1,1920)              5.47858251E-02
    1815    (1,1921)              5.47860926E-02
    1816    (1,1922)              5.48242187E-02
    1817    (1,1923)              5.48242187E-02
    1818    (1,1924)              5.47859589E-02
    1819    (1,1925)              5.47856913E-02
    1820    (1,1926)              5.47856913E-02
    1821    (1,1927)              5.47862264E-02
    1822    (1,1928)              5.47897046E-02
    1823    (1,1931)              5.47856913E-02
    1824    (1,1932)              5.47856913E-02
    1825    (1,1933)              5.47855575E-02
    1826    (1,1934)              5.47851562E-02
    1827    (1,1935)              5.47860926E-02
    1828    (1,1936)              5.48250214E-02
    1829    (1,1937)              5.48286333E-02
    1830    (1,1938)              5.47898384E-02
    1831    (1,1939)              5.47858251E-02
    1832    (1,1940)              5.47856913E-02
    1833    (1,1941)              5.47856913E-02
    1834    (1,1942)              5.47854238E-02
    1835    (1,1943)              5.47854238E-02
    1836    (1,1944)              5.47862264E-02
    1837    (1,1945)              5.48246200E-02
    1838    (1,1946)              5.48244863E-02
    1839    (1,1947)              5.47850224E-02
    1840    (1,1948)              5.47856913E-02
    1841    (1,1949)              5.47860926E-02
    1842    (1,1950)              5.47854238E-02
    1843    (1,1951)              5.47863602E-02
    1844    (1,1952)              5.47897046E-02
    1845    (1,1953)              5.47901059E-02
    1846    (1,1954)              5.48246200E-02
    1847    (1,1955)              5.48250214E-02
    1848    (1,1956)              5.47858251E-02
    1849    (1,1957)              5.47856913E-02
    1850    (1,1958)              5.47852900E-02
    1851    (1,1959)              5.47859589E-02
    1852    (1,1960)              5.47856913E-02
    1853    (1,1961)              5.47863602E-02
    1854    (1,1962)              5.47860926E-02
    1855    (1,1963)              5.47856913E-02
    1856    (1,1964)              5.48244863E-02
    1857    (1,1965)              5.48153895E-02
    1858    (1,1966)              1.36968910E-02
    1859    (1,1967)              1.36964897E-02
    1860    (1,1968)              1.36966235E-02
    1861    (1,1969)              1.36964897E-02
    1862    (1,1970)              1.36963559E-02
    1863    (1,1971)              1.36964897E-02
    1864    (1,1972)              1.36964897E-02
    1865    (1,1973)              1.36983626E-02
    1866    (1,1974)              5.47990689E-02
    1867    (1,1975)              5.47860926E-02
    1868    (1,1976)              5.47852900E-02
    1869    (1,1977)              5.47863602E-02
    1870    (1,1978)              5.47856913E-02
    1871    (1,1979)              5.48243525E-02
    1872    (1,1980)              5.48247538E-02
    1873    (1,1981)              5.47863602E-02
    1874    (1,1982)              5.47854238E-02
    1875    (1,1983)              5.47862264E-02
    1876    (1,1984)              5.47856913E-02
    1877    (1,1985)              5.47850224E-02
    1878    (1,1986)              5.47854238E-02
    1879    (1,1987)              5.47893032E-02
    1880    (1,1988)              5.48286333E-02
    1881    (1,1989)              5.48246200E-02
    1882    (1,1990)              5.47858251E-02
    1883    (1,1991)              5.47858251E-02
    1884    (1,1992)              5.47856913E-02
    1885    (1,1993)              5.47858251E-02
    1886    (1,1994)              5.47860926E-02
    1887    (1,1995)              5.47858251E-02
    1888    (1,1996)              5.47854238E-02
    1889    (1,1997)              5.47855575E-02
    1890    (1,1998)              5.48240849E-02
    1891    (1,1999)              5.48248876E-02
    1892    (1,2000)              5.47856913E-02
    1893    (1,2001)              5.47860926E-02
    1894    (1,2002)              5.47890357E-02
    1895    (1,2003)              5.47887681E-02
    1896    (1,2006)              5.47851562E-02
    1897    (1,2007)              5.47858251E-02
    1898    (1,2008)              5.47856913E-02
    1899    (1,2009)              5.47856913E-02
    1900    (1,2010)              5.47894370E-02
    1901    (1,2011)              5.48286333E-02
    1902    (1,2012)              5.48244863E-02
    1903    (1,2013)              5.47855575E-02
    1904    (1,2014)              5.47854238E-02
    1905    (1,2015)              5.47860926E-02
    1906    (1,2016)              5.47862264E-02
    1907    (1,2017)              5.47858251E-02
    1908    (1,2018)              5.47860926E-02
    1909    (1,2019)              5.47854238E-02
    1910    (1,2020)              5.48247538E-02
    1911    (1,2021)              5.48243525E-02
    1912    (1,2022)              5.47856913E-02
    1913    (1,2023)              5.47859589E-02
    1914    (1,2024)              5.47856913E-02
    1915    (1,2025)              5.47903735E-02
    1916    (1,2026)              5.47894370E-02
    1917    (1,2027)              5.47858251E-02
    1918    (1,2028)              5.47862264E-02
    1919    (1,2029)              5.48246200E-02
    1920    (1,2030)              5.48250214E-02
    1921    (1,2031)              5.47856913E-02
    1922    (1,2032)              5.47855575E-02
    1923    (1,2033)              5.47855575E-02
    1924    (1,2034)              5.47862264E-02
    1925    (1,2035)              5.47854238E-02
    1926    (1,2036)              5.47854238E-02
    1927    (1,2037)              5.47856913E-02
    1928    (1,2038)              5.47858251E-02
    1929    (1,2039)              5.48243525E-02
    1930    (1,2040)              5.48092358E-02
    1931    (1,2041)              1.36986301E-02
    1932    (1,2042)              1.36960884E-02
    1933    (1,2043)              1.36968910E-02
    1934    (1,2044)              1.36966235E-02
    1935    (1,2045)              5.47959920E-02
    1936    (1,2046)              5.47862264E-02
    1937    (1,2047)              5.47859589E-02
    1938    (1,2048)              5.47858251E-02
    1939    (1,2049)              5.47856913E-02
    1940    (1,2050)              5.47863602E-02
    1941    (1,2051)              5.48244863E-02
    1942    (1,2052)              5.48242187E-02
    1943    (1,2053)              5.47858251E-02
    1944    (1,2054)              5.47858251E-02
    1945    (1,2055)              5.47863602E-02
    1946    (1,2056)              5.47862264E-02
    1947    (1,2057)              5.47899721E-02
    1948    (1,2058)              5.47901059E-02
    1949    (1,2059)              5.47858251E-02
    1950    (1,2060)              5.48251551E-02
    1951    (1,2061)              5.48244863E-02
    1952    (1,2062)              5.47859589E-02
    1953    (1,2063)              5.47856913E-02
    1954    (1,2064)              5.47859589E-02
    1955    (1,2065)              5.47855575E-02
    1956    (1,2066)              5.47858251E-02
    1957    (1,2067)              5.47854238E-02
    1958    (1,2068)              5.47855575E-02
    1959    (1,2069)              5.47856913E-02
    1960    (1,2070)              5.48244863E-02
    1961    (1,2071)              5.48243525E-02
    1962    (1,2072)              5.47893032E-02
    1963    (1,2073)              5.47891695E-02
    1964    (1,2074)              5.47860926E-02
    1965    (1,2077)              5.47862264E-02
    1966    (1,2078)              5.47854238E-02
    1967    (1,2079)              5.47895708E-02
    1968    (1,2080)              5.47890357E-02
    1969    (1,2081)              5.47860926E-02
    1970    (1,2082)              5.48246200E-02
    1971    (1,2083)              5.48246200E-02
    1972    (1,2084)              5.47854238E-02
    1973    (1,2085)              5.47855575E-02
    1974    (1,2086)              5.47859589E-02
    1975    (1,2087)              5.47855575E-02
    1976    (1,2088)              5.47859589E-02
    1977    (1,2089)              5.47856913E-02
    1978    (1,2090)              5.47860926E-02
    1979    (1,2091)              5.48243525E-02
    1980    (1,2092)              5.48240849E-02
    1981    (1,2093)              5.47852900E-02
    1982    (1,2094)              5.47901059E-02
    1983    (1,2095)              5.47898384E-02
    1984    (1,2096)              5.47854238E-02
    1985    (1,2097)              5.47862264E-02
    1986    (1,2098)              5.47856913E-02
    1987    (1,2099)              5.47859589E-02
    1988    (1,2100)              5.48247538E-02
    1989    (1,2101)              5.48251551E-02
    1990    (1,2102)              5.47851562E-02
    1991    (1,2103)              5.47854238E-02
    1992    (1,2104)              5.47858251E-02
    1993    (1,2105)              5.47856913E-02
    1994    (1,2106)              5.47852900E-02
    1995    (1,2107)              5.47860926E-02
    1996    (1,2108)              5.47854238E-02
    1997    (1,2109)              5.47895708E-02
    1998    (1,2110)              5.48271618E-02
    1999    (1,2111)              1.36963559E-02
    2000    (1,2112)              1.36970248E-02
    2001    (1,2113)              1.37160210E-02
    2002    (1,2114)              1.36963559E-02
    2003    (1,2115)              5.47965271E-02
    2004    (1,2116)              5.47862264E-02
    2005    (1,2117)              5.47863602E-02
    2006    (1,2118)              5.47858251E-02
    2007    (1,2119)              5.47860926E-02
    2008    (1,2120)              5.47859589E-02
    2009    (1,2121)              5.47851562E-02
    2010    (1,2122)              5.48244863E-02
    2011    (1,2123)              5.48238174E-02
    2012    (1,2124)              5.47862264E-02
    2013    (1,2125)              5.47856913E-02
    2014    (1,2126)              5.47898384E-02
    2015    (1,2127)              5.47899721E-02
    2016    (1,2128)              5.47855575E-02
    2017    (1,2129)              5.47863602E-02
    2018    (1,2130)              5.47859589E-02
    2019    (1,2131)              5.48250214E-02
    2020    (1,2132)              5.48244863E-02
    2021    (1,2133)              5.47855575E-02
    2022    (1,2134)              5.47859589E-02
    2023    (1,2135)              5.47856913E-02
    2024    (1,2136)              5.47858251E-02
    2025    (1,2137)              5.47856913E-02
    2026    (1,2138)              5.47859589E-02
    2027    (1,2139)              5.47856913E-02
    2028    (1,2140)              5.47850224E-02
    2029    (1,2141)              5.48276969E-02
    2030    (1,2142)              5.48282320E-02
    2031    (1,2143)              5.47858251E-02
    2032    (1,2144)              5.47851562E-02
    2033    (1,2147)              5.47897046E-02
    2034    (1,2148)              5.47897046E-02
    2035    (1,2149)              5.47855575E-02
    2036    (1,2150)              5.47860926E-02
    2037    (1,2151)              5.47854238E-02
    2038    (1,2152)              5.48239512E-02
    2039    (1,2153)              5.48247538E-02
    2040    (1,2154)              5.47855575E-02
    2041    (1,2155)              5.47855575E-02
    2042    (1,2156)              5.47854238E-02
    2043    (1,2157)              5.47856913E-02
    2044    (1,2158)              5.47856913E-02
    2045    (1,2159)              5.47855575E-02
    2046    (1,2160)              5.47860926E-02
    2047    (1,2161)              5.48242187E-02
    2048    (1,2162)              5.48284995E-02
    2049    (1,2163)              5.47897046E-02
    2050    (1,2164)              5.47858251E-02
    2051    (1,2165)              5.47862264E-02
    2052    (1,2166)              5.47859589E-02
    2053    (1,2167)              5.47858251E-02
    2054    (1,2168)              5.47863602E-02
    2055    (1,2169)              5.47860926E-02
    2056    (1,2170)              5.48247538E-02
    2057    (1,2171)              5.48242187E-02
    2058    (1,2172)              5.47852900E-02
    2059    (1,2173)              5.47858251E-02
    2060    (1,2174)              5.47856913E-02
    2061    (1,2175)              5.47854238E-02
    2062    (1,2176)              5.47852900E-02
    2063    (1,2177)              5.47893032E-02
    2064    (1,2178)              5.47898384E-02
    2065    (1,2179)              5.47943867E-02
    2066    (1,2180)              1.36964897E-02
    2067    (1,2181)              1.37160210E-02
    2068    (1,2182)              1.36962222E-02
    2069    (1,2183)              1.36964897E-02
    2070    (1,2184)              5.48250214E-02
    2071    (1,2185)              5.47856913E-02
    2072    (1,2186)              5.47858251E-02
    2073    (1,2187)              5.47854238E-02
    2074    (1,2188)              5.47860926E-02
    2075    (1,2189)              5.47862264E-02
    2076    (1,2190)              5.47858251E-02
    2077    (1,2191)              5.47860926E-02
    2078    (1,2192)              5.48240849E-02
    2079    (1,2193)              5.48252889E-02
    2080    (1,2194)              5.47895708E-02
    2081    (1,2195)              5.47890357E-02
    2082    (1,2196)              5.47858251E-02
    2083    (1,2197)              5.47859589E-02
    2084    (1,2198)              5.47859589E-02
    2085    (1,2199)              5.47856913E-02
    2086    (1,2200)              5.47856913E-02
    2087    (1,2201)              5.48246200E-02
    2088    (1,2202)              5.48254227E-02
    2089    (1,2203)              5.47965271E-02
    2090    (1,2204)              5.47967947E-02
    2091    (1,2205)              5.47962596E-02
    2092    (1,2206)              5.47967947E-02
    2093    (1,2207)              5.47965271E-02
    2094    (1,2208)              5.47771297E-02
    2095    (1,2209)              5.47803403E-02
    2096    (1,2210)              5.47784674E-02
    2097    (1,2211)              5.48240849E-02
    2098    (1,2212)              5.48240849E-02
    2099    (1,2213)              5.47859589E-02
    2100    (1,2216)              5.47862264E-02
    2101    (1,2217)              5.47858251E-02
    2102    (1,2218)              5.47855575E-02
    2103    (1,2219)              5.47862264E-02
    2104    (1,2220)              5.47859589E-02
    2105    (1,2221)              5.48240849E-02
    2106    (1,2222)              5.48246200E-02
    2107    (1,2223)              5.47856913E-02
    2108    (1,2224)              5.47859589E-02
    2109    (1,2225)              5.47860926E-02
    2110    (1,2226)              5.47855575E-02
    2111    (1,2227)              5.47859589E-02
    2112    (1,2228)              5.47859589E-02
    2113    (1,2229)              5.47895708E-02
    2114    (1,2230)              5.48280982E-02
    2115    (1,2231)              5.48247538E-02
    2116    (1,2232)              5.47859589E-02
    2117    (1,2233)              5.47862264E-02
    2118    (1,2234)              5.47859589E-02
    2119    (1,2235)              5.47855575E-02
    2120    (1,2236)              5.47864940E-02
    2121    (1,2237)              5.47860926E-02
    2122    (1,2238)              5.47856913E-02
    2123    (1,2239)              5.48248876E-02
    2124    (1,2240)              5.48246200E-02
    2125    (1,2241)              5.47860926E-02
    2126    (1,2242)              5.47859589E-02
    2127    (1,2243)              5.47863602E-02
    2128    (1,2244)              5.47902397E-02
    2129    (1,2245)              5.47895708E-02
    2130    (1,2246)              5.47859589E-02
    2131    (1,2247)              5.47943867E-02
    2132    (1,2248)              1.36960884E-02
    2133    (1,2249)              1.36963559E-02
    2134    (1,2250)              1.36970248E-02
    2135    (1,2251)              1.36963559E-02
    2136    (1,2252)              5.48155233E-02
    2137    (1,2253)              5.48240849E-02
    2138    (1,2254)              5.47858251E-02
    2139    (1,2255)              5.47856913E-02
    2140    (1,2256)              5.47860926E-02
    2141    (1,2257)              5.47860926E-02
    2142    (1,2258)              5.47863602E-02
    2143    (1,2259)              5.47864940E-02
    2144    (1,2260)              5.47859589E-02
    2145    (1,2261)              5.48280982E-02
    2146    (1,2262)              5.48282320E-02
    2147    (1,2263)              5.47859589E-02
    2148    (1,2264)              5.47858251E-02
    2149    (1,2265)              5.47859589E-02
    2150    (1,2266)              5.47949218E-02
    2151    (1,2267)              5.47753906E-02
    2152    (1,2268)              5.47753906E-02
    2153    (1,2269)              5.47882330E-02
    2154    (1,2270)              1.36966235E-02
    2155    (1,2271)              1.37161547E-02
    2156    (1,2272)              1.36966235E-02
    2157    (1,2273)              1.36966235E-02
    2158    (1,2274)              1.36964897E-02
    2159    (1,2275)              1.36966235E-02
    2160    (1,2276)              1.37160210E-02
    2161    (1,2277)              1.36968910E-02
    2162    (1,2278)              1.36958208E-02
    2163    (1,2279)              1.36959546E-02
    2164    (1,2280)              1.36959546E-02
    2165    (1,2281)              1.36970248E-02
    2166    (1,2282)              1.36964897E-02
    2167    (1,2283)              1.36962222E-02
    2168    (1,2284)              1.36960884E-02
    2169    (1,2285)              1.36962222E-02
    2170    (1,2286)              1.36963559E-02
    2171    (1,2287)              1.36968910E-02
    2172    (1,2288)              1.36966235E-02
    2173    (1,2289)              1.36963559E-02
    2174    (1,2290)              1.36968910E-02
    2175    (1,2291)              1.36970248E-02
    2176    (1,2292)              1.36959546E-02
    2177    (1,2293)              1.36968910E-02
    2178    (1,2294)              1.37153521E-02
    2179    (1,2295)              1.36966235E-02
    2180    (1,2296)              1.36968910E-02
    2181    (1,2297)              1.37180276E-02
    2182    (1,2298)              1.36980950E-02
    2183    (1,2299)              1.36966235E-02
    2184    (1,2300)              1.36966235E-02
    2185    (1,2301)              1.36962222E-02
    2186    (1,2302)              1.36956871E-02
    2187    (1,2303)              1.36968910E-02
    2188    (1,2304)              1.36963559E-02
    2189    (1,2305)              1.36968910E-02
    2190    (1,2306)              5.47649561E-02
    2191    (1,2307)              5.48242187E-02
    2192    (1,2308)              5.48242187E-02
    2193    (1,2311)              5.47856913E-02
    2194    (1,2312)              5.47854238E-02
    2195    (1,2313)              5.47856913E-02
    2196    (1,2314)              5.47852900E-02
    2197    (1,2315)              5.47855575E-02
    2198    (1,2316)              5.48242187E-02
    2199    (1,2317)              5.48239512E-02
    2200    (1,2318)              5.47855575E-02
    2201    (1,2319)              5.47855575E-02
    2202    (1,2320)              5.47851562E-02
    2203    (1,2321)              5.47856913E-02
    2204    (1,2322)              5.47902397E-02
    2205    (1,2323)              5.47898384E-02
    2206    (1,2324)              5.47862264E-02
    2207    (1,2325)              5.48246200E-02
    2208    (1,2326)              5.48247538E-02
    2209    (1,2327)              5.47863602E-02
    2210    (1,2328)              5.47859589E-02
    2211    (1,2329)              5.47860926E-02
    2212    (1,2330)              5.47859589E-02
    2213    (1,2331)              5.47852900E-02
    2214    (1,2332)              5.47859589E-02
    2215    (1,2333)              5.47854238E-02
    2216    (1,2334)              5.48242187E-02
    2217    (1,2335)              5.48244863E-02
    2218    (1,2336)              5.47859589E-02
    2219    (1,2337)              5.47894370E-02
    2220    (1,2338)              5.47891695E-02
    2221    (1,2339)              5.47858251E-02
    2222    (1,2340)              5.47858251E-02
    2223    (1,2341)              5.47831496E-02
    2224    (1,2342)              1.36967573E-02
    2225    (1,2343)              1.36959546E-02
    2226    (1,2344)              1.36967573E-02
    2227    (1,2345)              1.36962222E-02
    2228    (1,2346)              5.47771297E-02
    2229    (1,2347)              5.48244863E-02
    2230    (1,2348)              5.48243525E-02
    2231    (1,2349)              5.47856913E-02
    2232    (1,2350)              5.47858251E-02
    2233    (1,2351)              5.47862264E-02
    2234    (1,2352)              5.47856913E-02
    2235    (1,2353)              5.47862264E-02
    2236    (1,2354)              5.47898384E-02
    2237    (1,2355)              5.47895708E-02
    2238    (1,2356)              5.48243525E-02
    2239    (1,2357)              5.48242187E-02
    2240    (1,2358)              5.47945205E-02
    2241    (1,2359)              5.47840860E-02
    2242    (1,2360)              1.36963559E-02
    2243    (1,2361)              1.36966235E-02
    2244    (1,2362)              1.36964897E-02
    2245    (1,2363)              1.36962222E-02
    2246    (1,2364)              1.37158872E-02
    2247    (1,2365)              1.36964897E-02
    2248    (1,2366)              1.36967573E-02
    2249    (1,2367)              1.37157534E-02
    2250    (1,2368)              1.36963559E-02
    2251    (1,2369)              1.36983626E-02
    2252    (1,2370)              1.36983626E-02
    2253    (1,2371)              1.36964897E-02
    2254    (1,2372)              1.36962222E-02
    2255    (1,2373)              1.36964897E-02
    2256    (1,2374)              1.36962222E-02
    2257    (1,2375)              1.36964897E-02
    2258    (1,2376)              1.36963559E-02
    2259    (1,2377)              1.36967573E-02
    2260    (1,2378)              1.36962222E-02
    2261    (1,2379)              1.36964897E-02
    2262    (1,2380)              5.48133829E-02
    2263    (1,2381)              5.48141855E-02
    2264    (1,2382)              5.47756581E-02
    2265    (1,2383)              5.47748555E-02
    2266    (1,2384)              5.47687018E-02
    2267    (1,2385)              1.36978275E-02
    2268    (1,2386)              1.36967573E-02
    2269    (1,2387)              1.36966235E-02
    2270    (1,2388)              1.36956871E-02
    2271    (1,2389)              1.37160210E-02
    2272    (1,2390)              1.36960884E-02
    2273    (1,2391)              1.36966235E-02
    2274    (1,2392)              1.37158872E-02
    2275    (1,2393)              1.36959546E-02
    2276    (1,2394)              1.36963559E-02
    2277    (1,2395)              1.36960884E-02
    2278    (1,2396)              1.36958208E-02
    2279    (1,2397)              1.36963559E-02
    2280    (1,2398)              1.36956871E-02
    2281    (1,2399)              1.36968910E-02
    2282    (1,2400)              1.36964897E-02
    2283    (1,2401)              5.47669627E-02
    2284    (1,2402)              5.48246200E-02
    2285    (1,2405)              5.47854238E-02
    2286    (1,2406)              5.47858251E-02
    2287    (1,2407)              5.47859589E-02
    2288    (1,2408)              5.47859589E-02
    2289    (1,2409)              5.47856913E-02
    2290    (1,2410)              5.48247538E-02
    2291    (1,2411)              5.48236836E-02
    2292    (1,2412)              5.47856913E-02
    2293    (1,2413)              5.47854238E-02
    2294    (1,2414)              5.47891695E-02
    2295    (1,2415)              5.47898384E-02
    2296    (1,2416)              5.47855575E-02
    2297    (1,2417)              5.47859589E-02
    2298    (1,2418)              5.47862264E-02
    2299    (1,2419)              5.48247538E-02
    2300    (1,2420)              5.48240849E-02
    2301    (1,2421)              5.47854238E-02
    2302    (1,2422)              5.47859589E-02
    2303    (1,2423)              5.47862264E-02
    2304    (1,2424)              5.47858251E-02
    2305    (1,2425)              5.47864940E-02
    2306    (1,2426)              5.47860926E-02
    2307    (1,2427)              5.47859589E-02
    2308    (1,2428)              5.48248876E-02
    2309    (1,2429)              5.48284995E-02
    2310    (1,2430)              5.47895708E-02
    2311    (1,2431)              5.47852900E-02
    2312    (1,2432)              5.47859589E-02
    2313    (1,2433)              5.47751230E-02
    2314    (1,2434)              1.37158872E-02
    2315    (1,2435)              1.36959546E-02
    2316    (1,2436)              1.36963559E-02
    2317    (1,2437)              1.37153521E-02
    2318    (1,2438)              1.36968910E-02
    2319    (1,2439)              1.36959546E-02
    2320    (1,2440)              1.36967573E-02
    2321    (1,2441)              1.36964897E-02
    2322    (1,2442)              5.47775310E-02
    2323    (1,2443)              5.47854238E-02
    2324    (1,2444)              5.48248876E-02
    2325    (1,2445)              5.48250214E-02
    2326    (1,2446)              5.47858251E-02
    2327    (1,2447)              5.47856913E-02
    2328    (1,2448)              5.47856913E-02
    2329    (1,2449)              5.47895708E-02
    2330    (1,2450)              5.47895708E-02
    2331    (1,2451)              5.47859589E-02
    2332    (1,2452)              5.47860926E-02
    2333    (1,2453)              5.48121789E-02
    2334    (1,2454)              1.36963559E-02
    2335    (1,2455)              1.36962222E-02
    2336    (1,2456)              1.37160210E-02
    2337    (1,2457)              1.36962222E-02
    2338    (1,2458)              1.36968910E-02
    2339    (1,2459)              1.36962222E-02
    2340    (1,2460)              1.36960884E-02
    2341    (1,2461)              1.36970248E-02
    2342    (1,2462)              1.36962222E-02
    2343    (1,2463)              1.36964897E-02
    2344    (1,2464)              1.36966235E-02
    2345    (1,2465)              1.36963559E-02
    2346    (1,2466)              5.47875642E-02
    2347    (1,2467)              5.47949218E-02
    2348    (1,2468)              5.47946543E-02
    2349    (1,2469)              5.47949218E-02
    2350    (1,2470)              5.47854238E-02
    2351    (1,2471)              5.48244863E-02
    2352    (1,2472)              5.48243525E-02
    2353    (1,2473)              5.47894370E-02
    2354    (1,2474)              5.47897046E-02
    2355    (1,2475)              5.47772634E-02
    2356    (1,2476)              5.47771297E-02
    2357    (1,2477)              5.48056239E-02
    2358    (1,2478)              1.36964897E-02
    2359    (1,2479)              1.36964897E-02
    2360    (1,2480)              1.36960884E-02
    2361    (1,2481)              1.36964897E-02
    2362    (1,2482)              1.36959546E-02
    2363    (1,2483)              1.36964897E-02
    2364    (1,2484)              1.36964897E-02
    2365    (1,2485)              1.36966235E-02
    2366    (1,2486)              5.47664276E-02
    2367    (1,2489)              5.47858251E-02
    2368    (1,2490)              5.47856913E-02
    2369    (1,2491)              5.47855575E-02
    2370    (1,2492)              5.47859589E-02
    2371    (1,2493)              5.47858251E-02
    2372    (1,2494)              5.48243525E-02
    2373    (1,2495)              5.48238174E-02
    2374    (1,2496)              5.47897046E-02
    2375    (1,2497)              5.47893032E-02
    2376    (1,2498)              5.47859589E-02
    2377    (1,2499)              5.47855575E-02
    2378    (1,2500)              5.47859589E-02
    2379    (1,2501)              5.47856913E-02
    2380    (1,2502)              5.47859589E-02
    2381    (1,2503)              5.48248876E-02
    2382    (1,2504)              5.48248876E-02
    2383    (1,2505)              5.47855575E-02
    2384    (1,2506)              5.47860926E-02
    2385    (1,2507)              5.47860926E-02
    2386    (1,2508)              5.47859589E-02
    2387    (1,2509)              5.47855575E-02
    2388    (1,2510)              5.47851562E-02
    2389    (1,2511)              5.47893032E-02
    2390    (1,2512)              5.48284995E-02
    2391    (1,2513)              5.48244863E-02
    2392    (1,2514)              5.47859589E-02
    2393    (1,2515)              5.47859589E-02
    2394    (1,2516)              5.47753906E-02
    2395    (1,2517)              1.36968910E-02
    2396    (1,2518)              1.36970248E-02
    2397    (1,2519)              1.36963559E-02
    2398    (1,2520)              1.36963559E-02
    2399    (1,2521)              5.48169948E-02
    2400    (1,2522)              5.47859589E-02
    2401    (1,2523)              5.47856913E-02
    2402    (1,2524)              5.47855575E-02
    2403    (1,2525)              5.48250214E-02
    2404    (1,2526)              5.48243525E-02
    2405    (1,2527)              5.47859589E-02
    2406    (1,2528)              5.47894370E-02
    2407    (1,2529)              5.47899721E-02
    2408    (1,2530)              5.47860926E-02
    2409    (1,2531)              5.47858251E-02
    2410    (1,2532)              5.47951894E-02
    2411    (1,2533)              1.36971586E-02
    2412    (1,2534)              1.36960884E-02
    2413    (1,2535)              1.36964897E-02
    2414    (1,2536)              1.36967573E-02
    2415    (1,2537)              1.36962222E-02
    2416    (1,2538)              1.37157534E-02
    2417    (1,2539)              1.36967573E-02
    2418    (1,2540)              1.36959546E-02
    2419    (1,2541)              5.48167273E-02
    2420    (1,2542)              5.47768621E-02
    2421    (1,2543)              5.47856913E-02
    2422    (1,2544)              5.47856913E-02
    2423    (1,2545)              5.47859589E-02
    2424    (1,2546)              5.47855575E-02
    2425    (1,2547)              5.47851562E-02
    2426    (1,2548)              5.47855575E-02
    2427    (1,2549)              5.48282320E-02
    2428    (1,2550)              5.48280982E-02
    2429    (1,2551)              5.47858251E-02
    2430    (1,2552)              5.47858251E-02
    2431    (1,2553)              5.47858251E-02
    2432    (1,2554)              5.47854238E-02
    2433    (1,2555)              5.48056239E-02
    2434    (1,2556)              1.36963559E-02
    2435    (1,2557)              1.36964897E-02
    2436    (1,2558)              1.36970248E-02
    2437    (1,2559)              1.36968910E-02
    2438    (1,2560)              1.36963559E-02
    2439    (1,2561)              1.36980950E-02
    2440    (1,2562)              1.36983626E-02
    2441    (1,2563)              1.36964897E-02
    2442    (1,2567)              5.47854238E-02
    2443    (1,2568)              5.47855575E-02
    2444    (1,2569)              5.47856913E-02
    2445    (1,2570)              5.47860926E-02
    2446    (1,2571)              5.47859589E-02
    2447    (1,2572)              5.48287671E-02
    2448    (1,2573)              5.48284995E-02
    2449    (1,2574)              5.47854238E-02
    2450    (1,2575)              5.47854238E-02
    2451    (1,2576)              5.47855575E-02
    2452    (1,2577)              5.47856913E-02
    2453    (1,2578)              5.47852900E-02
    2454    (1,2579)              5.47858251E-02
    2455    (1,2580)              5.47856913E-02
    2456    (1,2581)              5.48244863E-02
    2457    (1,2582)              5.48243525E-02
    2458    (1,2583)              5.47859589E-02
    2459    (1,2584)              5.47852900E-02
    2460    (1,2585)              5.47860926E-02
    2461    (1,2586)              5.47858251E-02
    2462    (1,2587)              5.47897046E-02
    2463    (1,2588)              5.47898384E-02
    2464    (1,2589)              5.47858251E-02
    2465    (1,2590)              5.48244863E-02
    2466    (1,2591)              5.48244863E-02
    2467    (1,2592)              5.47856913E-02
    2468    (1,2593)              5.47744541E-02
    2469    (1,2594)              1.36964897E-02
    2470    (1,2595)              1.36984963E-02
    2471    (1,2596)              1.36983626E-02
    2472    (1,2597)              1.36968910E-02
    2473    (1,2598)              1.36964897E-02
    2474    (1,2599)              1.36960884E-02
    2475    (1,2600)              1.36962222E-02
    2476    (1,2601)              1.36959546E-02
    2477    (1,2602)              5.47950556E-02
    2478    (1,2603)              5.47856913E-02
    2479    (1,2604)              5.47855575E-02
    2480    (1,2605)              5.47856913E-02
    2481    (1,2606)              5.48244863E-02
    2482    (1,2607)              5.48282320E-02
    2483    (1,2608)              5.47890357E-02
    2484    (1,2609)              5.47855575E-02
    2485    (1,2610)              5.47862264E-02
    2486    (1,2611)              5.47858251E-02
    2487    (1,2612)              5.47832833E-02
    2488    (1,2613)              1.36966235E-02
    2489    (1,2614)              1.36964897E-02
    2490    (1,2615)              1.36967573E-02
    2491    (1,2616)              1.36960884E-02
    2492    (1,2617)              5.47883668E-02
    2493    (1,2618)              5.48254227E-02
    2494    (1,2619)              5.48243525E-02
    2495    (1,2620)              5.47856913E-02
    2496    (1,2621)              5.47858251E-02
    2497    (1,2622)              5.47859589E-02
    2498    (1,2623)              5.47856913E-02
    2499    (1,2624)              5.47862264E-02
    2500    (1,2625)              5.47901059E-02
    2501    (1,2626)              5.47894370E-02
    2502    (1,2627)              5.48251551E-02
    2503    (1,2628)              5.48244863E-02
    2504    (1,2629)              5.47859589E-02
    2505    (1,2630)              5.47858251E-02
    2506    (1,2631)              5.47858251E-02
    2507    (1,2632)              5.47856913E-02
    2508    (1,2633)              5.47959920E-02
    2509    (1,2634)              5.47939854E-02
    2510    (1,2637)              5.47858251E-02
    2511    (1,2638)              5.47855575E-02
    2512    (1,2639)              5.47855575E-02
    2513    (1,2640)              5.47889019E-02
    2514    (1,2641)              5.47898384E-02
    2515    (1,2642)              5.48236836E-02
    2516    (1,2643)              5.48240849E-02
    2517    (1,2644)              5.47852900E-02
    2518    (1,2645)              5.47855575E-02
    2519    (1,2646)              5.47858251E-02
    2520    (1,2647)              5.47858251E-02
    2521    (1,2648)              5.47855575E-02
    2522    (1,2649)              5.47856913E-02
    2523    (1,2650)              5.47855575E-02
    2524    (1,2651)              5.48240849E-02
    2525    (1,2652)              5.48243525E-02
    2526    (1,2653)              5.47863602E-02
    2527    (1,2654)              5.47856913E-02
    2528    (1,2655)              5.47898384E-02
    2529    (1,2656)              5.47893032E-02
    2530    (1,2657)              5.47859589E-02
    2531    (1,2658)              5.47858251E-02
    2532    (1,2659)              5.47859589E-02
    2533    (1,2660)              5.48236836E-02
    2534    (1,2661)              5.48243525E-02
    2535    (1,2662)              5.47850224E-02
    2536    (1,2663)              5.47661601E-02
    2537    (1,2664)              1.36964897E-02
    2538    (1,2665)              1.36966235E-02
    2539    (1,2666)              1.36967573E-02
    2540    (1,2667)              1.36962222E-02
    2541    (1,2668)              5.48041523E-02
    2542    (1,2669)              5.47850224E-02
    2543    (1,2670)              5.47848887E-02
    2544    (1,2671)              5.47856913E-02
    2545    (1,2672)              5.47899721E-02
    2546    (1,2673)              5.48286333E-02
    2547    (1,2674)              5.48224796E-02
    2548    (1,2675)              5.47951894E-02
    2549    (1,2676)              5.47949218E-02
    2550    (1,2677)              5.47834171E-02
    2551    (1,2678)              1.37161547E-02
    2552    (1,2679)              1.36967573E-02
    2553    (1,2680)              1.36964897E-02
    2554    (1,2681)              1.37152183E-02
    2555    (1,2682)              1.36970248E-02
    2556    (1,2683)              1.36964897E-02
    2557    (1,2684)              1.36959546E-02
    2558    (1,2685)              1.36966235E-02
    2559    (1,2686)              5.47771297E-02
    2560    (1,2687)              5.47862264E-02
    2561    (1,2688)              5.48240849E-02
    2562    (1,2689)              5.48246200E-02
    2563    (1,2690)              5.47856913E-02
    2564    (1,2691)              5.47859589E-02
    2565    (1,2692)              5.47854238E-02
    2566    (1,2693)              5.47890357E-02
    2567    (1,2694)              5.47890357E-02
    2568    (1,2695)              5.47860926E-02
    2569    (1,2696)              5.47864940E-02
    2570    (1,2697)              5.48250214E-02
    2571    (1,2698)              5.48244863E-02
    2572    (1,2699)              5.47855575E-02
    2573    (1,2700)              5.47859589E-02
    2574    (1,2701)              5.47851562E-02
    2575    (1,2702)              5.47856913E-02
    2576    (1,2703)              5.47858251E-02
    2577    (1,2706)              5.47852900E-02
    2578    (1,2707)              5.47893032E-02
    2579    (1,2708)              5.47887681E-02
    2580    (1,2709)              5.47860926E-02
    2581    (1,2710)              5.47852900E-02
    2582    (1,2711)              5.48242187E-02
    2583    (1,2712)              5.48242187E-02
    2584    (1,2713)              5.47854238E-02
    2585    (1,2714)              5.47855575E-02
    2586    (1,2715)              5.47859589E-02
    2587    (1,2716)              5.47856913E-02
    2588    (1,2717)              5.47855575E-02
    2589    (1,2718)              5.47858251E-02
    2590    (1,2719)              5.47860926E-02
    2591    (1,2720)              5.48247538E-02
    2592    (1,2721)              5.48239512E-02
    2593    (1,2722)              5.47895708E-02
    2594    (1,2723)              5.47898384E-02
    2595    (1,2724)              5.47855575E-02
    2596    (1,2725)              5.47855575E-02
    2597    (1,2726)              5.47863602E-02
    2598    (1,2727)              5.47856913E-02
    2599    (1,2728)              5.47863602E-02
    2600    (1,2729)              5.48236836E-02
    2601    (1,2730)              5.48243525E-02
    2602    (1,2731)              5.47771297E-02
    2603    (1,2732)              1.36964897E-02
    2604    (1,2733)              1.36964897E-02
    2605    (1,2734)              1.36964897E-02
    2606    (1,2735)              1.36959546E-02
    2607    (1,2736)              1.36960884E-02
    2608    (1,2737)              1.36968910E-02
    2609    (1,2738)              1.36958208E-02
    2610    (1,2739)              1.36962222E-02
    2611    (1,2740)              5.48056239E-02
    2612    (1,2741)              5.47854238E-02
    2613    (1,2742)              5.47893032E-02
    2614    (1,2743)              5.47794038E-02
    2615    (1,2744)              5.47835509E-02
    2616    (1,2745)              1.36966235E-02
    2617    (1,2746)              1.37158872E-02
    2618    (1,2747)              1.36966235E-02
    2619    (1,2748)              1.36967573E-02
    2620    (1,2749)              1.36958208E-02
    2621    (1,2750)              1.36959546E-02
    2622    (1,2751)              1.37154859E-02
    2623    (1,2752)              1.36956871E-02
    2624    (1,2753)              1.36968910E-02
    2625    (1,2754)              1.36963559E-02
    2626    (1,2755)              1.36960884E-02
    2627    (1,2756)              1.36968910E-02
    2628    (1,2757)              1.36963559E-02
    2629    (1,2758)              1.36968910E-02
    2630    (1,2759)              1.36962222E-02
    2631    (1,2760)              1.36958208E-02
    2632    (1,2761)              1.36962222E-02
    2633    (1,2762)              1.36959546E-02
    2634    (1,2763)              1.36963559E-02
    2635    (1,2764)              1.36956871E-02
    2636    (1,2765)              5.48069616E-02
    2637    (1,2766)              5.47854238E-02
    2638    (1,2767)              5.47858251E-02
    2639    (1,2768)              5.47860926E-02
    2640    (1,2769)              5.48246200E-02
    2641    (1,2770)              5.48243525E-02
    2642    (1,2771)              5.47863602E-02
    2643    (1,2772)              5.47894370E-02
    2644    (1,2773)              5.47895708E-02
    2645    (1,2774)              5.47854238E-02
    2646    (1,2775)              5.47856913E-02
    2647    (1,2776)              5.47860926E-02
    2648    (1,2777)              5.47855575E-02
    2649    (1,2778)              5.48240849E-02
    2650    (1,2779)              5.48248876E-02
    2651    (1,2780)              5.47852900E-02
    2652    (1,2781)              5.47858251E-02
    2653    (1,2782)              5.47859589E-02
    2654    (1,2783)              5.47855575E-02
    2655    (1,2786)              5.47895708E-02
    2656    (1,2787)              5.47855575E-02
    2657    (1,2788)              5.47862264E-02
    2658    (1,2789)              5.47856913E-02
    2659    (1,2790)              5.47856913E-02
    2660    (1,2791)              5.48246200E-02
    2661    (1,2792)              5.48248876E-02
    2662    (1,2793)              5.47855575E-02
    2663    (1,2794)              5.47864940E-02
    2664    (1,2795)              5.47866277E-02
    2665    (1,2796)              5.47860926E-02
    2666    (1,2797)              5.47858251E-02
    2667    (1,2798)              5.47856913E-02
    2668    (1,2799)              5.47860926E-02
    2669    (1,2800)              5.48282320E-02
    2670    (1,2801)              5.48287671E-02
    2671    (1,2802)              5.47856913E-02
    2672    (1,2803)              5.47859589E-02
    2673    (1,2804)              5.47862264E-02
    2674    (1,2805)              5.47856913E-02
    2675    (1,2806)              5.47859589E-02
    2676    (1,2807)              5.47860926E-02
    2677    (1,2808)              5.47862264E-02
    2678    (1,2809)              5.48248876E-02
    2679    (1,2810)              5.48244863E-02
    2680    (1,2811)              5.47668289E-02
    2681    (1,2812)              1.36968910E-02
    2682    (1,2813)              1.36970248E-02
    2683    (1,2814)              1.36958208E-02
    2684    (1,2815)              1.36966235E-02
    2685    (1,2816)              1.36963559E-02
    2686    (1,2817)              1.36968910E-02
    2687    (1,2818)              1.36959546E-02
    2688    (1,2819)              1.36960884E-02
    2689    (1,2820)              5.48077643E-02
    2690    (1,2821)              5.48069616E-02
    2691    (1,2822)              1.36964897E-02
    2692    (1,2823)              1.36966235E-02
    2693    (1,2824)              1.36958208E-02
    2694    (1,2825)              1.36959546E-02
    2695    (1,2826)              1.36964897E-02
    2696    (1,2827)              1.36967573E-02
    2697    (1,2828)              1.36963559E-02
    2698    (1,2829)              1.36958208E-02
    2699    (1,2830)              1.36967573E-02
    2700    (1,2831)              1.36970248E-02
    2701    (1,2832)              1.36962222E-02
    2702    (1,2833)              1.36963559E-02
    2703    (1,2834)              5.48164597E-02
    2704    (1,2835)              5.48163259E-02
    2705    (1,2836)              5.47764608E-02
    2706    (1,2837)              5.47764608E-02
    2707    (1,2838)              5.47850224E-02
    2708    (1,2839)              5.47856913E-02
    2709    (1,2840)              5.47850224E-02
    2710    (1,2841)              5.47848887E-02
    2711    (1,2842)              5.47854238E-02
    2712    (1,2843)              5.48244863E-02
    2713    (1,2844)              5.48279644E-02
    2714    (1,2845)              5.47889019E-02
    2715    (1,2846)              5.47860926E-02
    2716    (1,2847)              5.47856913E-02
    2717    (1,2848)              5.47860926E-02
    2718    (1,2849)              5.47860926E-02
    2719    (1,2850)              5.47855575E-02
    2720    (1,2851)              5.47856913E-02
    2721    (1,2852)              5.48240849E-02
    2722    (1,2853)              5.48239512E-02
    2723    (1,2854)              5.47854238E-02
    2724    (1,2857)              5.47858251E-02
    2725    (1,2858)              5.47859589E-02
    2726    (1,2859)              5.47858251E-02
    2727    (1,2860)              5.47855575E-02
    2728    (1,2861)              5.47858251E-02
    2729    (1,2862)              5.48247538E-02
    2730    (1,2863)              5.48247538E-02
    2731    (1,2864)              5.47854238E-02
    2732    (1,2865)              5.47855575E-02
    2733    (1,2866)              5.47851562E-02
    2734    (1,2867)              5.47855575E-02
    2735    (1,2868)              5.47851562E-02
    2736    (1,2869)              5.47897046E-02
    2737    (1,2870)              5.47893032E-02
    2738    (1,2871)              5.48246200E-02
    2739    (1,2872)              5.48244863E-02
    2740    (1,2873)              5.47858251E-02
    2741    (1,2874)              5.47858251E-02
    2742    (1,2875)              5.47855575E-02
    2743    (1,2876)              5.47863602E-02
    2744    (1,2877)              5.47863602E-02
    2745    (1,2878)              5.47866277E-02
    2746    (1,2879)              5.47855575E-02
    2747    (1,2880)              5.48244863E-02
    2748    (1,2881)              5.48247538E-02
    2749    (1,2882)              5.47656250E-02
    2750    (1,2883)              1.36963559E-02
    2751    (1,2884)              1.36963559E-02
    2752    (1,2885)              1.36962222E-02
    2753    (1,2886)              1.36987639E-02
    2754    (1,2887)              1.36987639E-02
    2755    (1,2888)              1.36966235E-02
    2756    (1,2889)              1.36960884E-02
    2757    (1,2890)              1.36959546E-02
    2758    (1,2891)              1.36963559E-02
    2759    (1,2892)              1.36966235E-02
    2760    (1,2893)              1.36960884E-02
    2761    (1,2894)              1.36958208E-02
    2762    (1,2895)              1.37164223E-02
    2763    (1,2896)              1.36968910E-02
    2764    (1,2897)              1.36962222E-02
    2765    (1,2898)              1.37156196E-02
    2766    (1,2899)              5.47880993E-02
    2767    (1,2900)              5.47963934E-02
    2768    (1,2901)              5.47856913E-02
    2769    (1,2902)              5.48239512E-02
    2770    (1,2903)              5.48239512E-02
    2771    (1,2904)              5.47859589E-02
    2772    (1,2905)              5.47856913E-02
    2773    (1,2906)              5.47856913E-02
    2774    (1,2907)              5.47858251E-02
    2775    (1,2908)              5.47858251E-02
    2776    (1,2909)              5.47855575E-02
    2777    (1,2910)              5.47901059E-02
    2778    (1,2911)              5.48280982E-02
    2779    (1,2912)              5.48243525E-02
    2780    (1,2913)              5.47856913E-02
    2781    (1,2914)              5.47864940E-02
    2782    (1,2915)              5.47856913E-02
    2783    (1,2916)              5.47859589E-02
    2784    (1,2917)              5.47860926E-02
    2785    (1,2918)              5.47859589E-02
    2786    (1,2919)              5.47858251E-02
    2787    (1,2922)              5.47864940E-02
    2788    (1,2923)              5.47855575E-02
    2789    (1,2924)              5.47851562E-02
    2790    (1,2925)              5.47854238E-02
    2791    (1,2926)              5.47854238E-02
    2792    (1,2927)              5.48246200E-02
    2793    (1,2928)              5.48242187E-02
    2794    (1,2929)              5.47855575E-02
    2795    (1,2930)              5.47854238E-02
    2796    (1,2931)              5.47855575E-02
    2797    (1,2932)              5.47901059E-02
    2798    (1,2933)              5.47901059E-02
    2799    (1,2934)              5.47858251E-02
    2800    (1,2935)              5.47854238E-02
    2801    (1,2936)              5.48242187E-02
    2802    (1,2937)              5.48240849E-02
    2803    (1,2938)              5.47848887E-02
    2804    (1,2939)              5.47855575E-02
    2805    (1,2940)              5.47858251E-02
    2806    (1,2941)              5.47852900E-02
    2807    (1,2942)              5.47855575E-02
    2808    (1,2943)              5.47855575E-02
    2809    (1,2944)              5.47852900E-02
    2810    (1,2945)              5.48246200E-02
    2811    (1,2946)              5.48287671E-02
    2812    (1,2947)              5.47794038E-02
    2813    (1,2948)              5.47775310E-02
    2814    (1,2949)              5.47771297E-02
    2815    (1,2950)              5.47771297E-02
    2816    (1,2951)              5.47855575E-02
    2817    (1,2952)              5.47858251E-02
    2818    (1,2953)              5.47858251E-02
    2819    (1,2954)              5.47860926E-02
    2820    (1,2955)              5.48247538E-02
    2821    (1,2956)              5.48247538E-02
    2822    (1,2957)              5.47860926E-02
    2823    (1,2958)              5.47855575E-02
    2824    (1,2959)              5.47863602E-02
    2825    (1,2960)              5.47856913E-02
    2826    (1,2961)              5.47898384E-02
    2827    (1,2962)              5.47891695E-02
    2828    (1,2963)              5.47855575E-02
    2829    (1,2964)              5.48240849E-02
    2830    (1,2965)              5.48243525E-02
    2831    (1,2966)              5.47855575E-02
    2832    (1,2967)              5.47854238E-02
    2833    (1,2968)              5.47858251E-02
    2834    (1,2969)              5.47852900E-02
    2835    (1,2972)              5.47858251E-02
    2836    (1,2973)              5.47856913E-02
    2837    (1,2974)              5.47863602E-02
    2838    (1,2975)              5.47860926E-02
    2839    (1,2976)              5.47855575E-02
    2840    (1,2977)              5.48243525E-02
    2841    (1,2978)              5.48244863E-02
    2842    (1,2979)              5.47856913E-02
    2843    (1,2980)              5.47890357E-02
    2844    (1,2981)              5.47891695E-02
    2845    (1,2982)              5.47855575E-02
    2846    (1,2983)              5.47858251E-02
    2847    (1,2984)              5.47859589E-02
    2848    (1,2985)              5.47863602E-02
    2849    (1,2986)              5.48243525E-02
    2850    (1,2987)              5.48243525E-02
    2851    (1,2988)              5.47860926E-02
    2852    (1,2989)              5.47862264E-02
    2853    (1,2990)              5.47854238E-02
    2854    (1,2991)              5.47862264E-02
    2855    (1,2992)              5.47854238E-02
    2856    (1,2993)              5.47864940E-02
    2857    (1,2994)              5.47897046E-02
    2858    (1,2995)              5.48284995E-02
    2859    (1,2996)              5.48244863E-02
    2860    (1,2997)              5.47854238E-02
    2861    (1,2998)              5.47856913E-02
    2862    (1,2999)              5.47860926E-02
    2863    (1,3000)              5.47859589E-02
    2864    (1,3001)              5.47855575E-02
    2865    (1,3002)              5.47859589E-02
    2866    (1,3003)              5.47856913E-02
    2867    (1,3004)              5.47854238E-02
    2868    (1,3005)              5.48238174E-02
    2869    (1,3006)              5.48244863E-02
    2870    (1,3007)              5.47859589E-02
    2871    (1,3008)              5.47854238E-02
    2872    (1,3009)              5.47894370E-02
    2873    (1,3010)              5.47898384E-02
    2874    (1,3011)              5.47852900E-02
    2875    (1,3012)              5.47858251E-02
    2876    (1,3013)              5.47854238E-02
    2877    (1,3014)              5.48246200E-02
    2878    (1,3019)              5.47862264E-02
    2879    (1,3020)              5.47856913E-02
    2880    (1,3021)              5.47862264E-02
    2881    (1,3022)              5.47855575E-02
    2882    (1,3023)              5.47856913E-02
    2883    (1,3024)              5.48244863E-02
    2884    (1,3025)              5.48283657E-02
    2885    (1,3026)              5.47898384E-02
    2886    (1,3027)              5.47852900E-02
    2887    (1,3028)              5.47856913E-02
    2888    (1,3029)              5.47854238E-02
    2889    (1,3030)              5.47859589E-02
    2890    (1,3031)              5.47858251E-02
    2891    (1,3032)              5.47856913E-02
    2892    (1,3033)              5.48239512E-02
    2893    (1,3034)              5.48244863E-02
    2894    (1,3035)              5.47860926E-02
    2895    (1,3036)              5.47858251E-02
    2896    (1,3037)              5.47859589E-02
    2897    (1,3038)              5.47854238E-02
    2898    (1,3039)              5.47895708E-02
    2899    (1,3040)              5.47893032E-02
    2900    (1,3041)              5.47858251E-02
    2901    (1,3042)              5.48250214E-02
    2902    (1,3043)              5.48242187E-02
    2903    (1,3044)              5.47862264E-02
    2904    (1,3045)              5.47851562E-02
    2905    (1,3046)              5.47859589E-02
    2906    (1,3047)              5.47859589E-02
    2907    (1,3048)              5.47854238E-02
    2908    (1,3049)              5.47859589E-02
    2909    (1,3050)              5.47858251E-02
    2910    (1,3051)              5.47858251E-02
    2911    (1,3052)              5.48244863E-02
    2912    (1,3053)              5.48243525E-02
    2913    (1,3054)              5.47893032E-02
    2914    (1,3062)              5.47855575E-02
    2915    (1,3063)              5.47855575E-02
    2916    (1,3064)              5.47856913E-02
    2917    (1,3065)              5.47854238E-02
    2918    (1,3066)              5.47901059E-02
    2919    (1,3067)              5.48289009E-02
    2920    (1,3068)              5.48244863E-02
    2921    (1,3069)              5.47848887E-02
    2922    (1,3070)              5.47854238E-02
    2923    (1,3071)              5.47863602E-02
    2924    (1,3072)              5.47858251E-02
    2925    (1,3073)              5.47858251E-02
    2926    (1,3074)              5.47856913E-02
    2927    (1,3075)              5.47863602E-02
    2928    (1,3076)              5.48244863E-02
    2929    (1,3077)              5.48247538E-02
    2930    (1,3098)              5.47862264E-02
    2931    (1,3099)              5.47862264E-02
    2932    (1,3100)              5.47901059E-02
    2933    (1,3101)              5.47895708E-02
    2934    (1,3102)              5.47852900E-02
    2935    (1,3103)              5.48246200E-02
    2936    (1,3104)              5.48243525E-02
    2937    (1,3105)              5.47855575E-02
    2938    (1,3106)              5.47854238E-02
    2939    (1,3107)              5.47859589E-02
    2940    (1,3108)              5.47856913E-02
    2941    (1,3109)              5.47856913E-02
    2942    (1,3110)              5.47854238E-02
    2943    (1,3111)              5.47855575E-02
    2944    (1,3113)              5.47858251E-02
    2945    (1,3114)              5.47894370E-02
    2946    (1,3115)              5.47895708E-02
    2947    (1,3116)              5.47860926E-02
    2948    (1,3117)              5.47852900E-02
    2949    (1,3118)              5.47856913E-02
    2950    (1,3119)              5.48239512E-02
    2951    (1,3120)              5.48247538E-02
    2952    (1,3121)              5.47856913E-02
    2953    (1,3122)              5.47858251E-02
    2954    (1,3123)              5.47860926E-02
    2955    (1,3124)              5.47856913E-02
 -----------------------------------------------



 UBDSV06 SAVING              SFR IN MODEL EXPERIMENTAL     PACKAGE EXPERIMENTAL    CONNECTED TO MODEL EXPERIMENTAL     PACKAGE SFR              ON UNIT   1019 AT TIME STEP     48, STRESS PERIOD      2

 SFR PACKAGE (SFR) FLOW RATES   PERIOD      2   STEP       48
 -----------------------------------------------
   NUMBER   CELLID                    RATE      
 -----------------------------------------------
     1      (1,2565)              0.0000000     
     2      (1,2563)              0.0000000     
     3      (1,2561)              0.0000000     
     4      (1,2560)              0.0000000     
     5      (1,2557)              0.0000000     
     6      (1,2485)              0.0000000     
     7      (1,2484)              0.0000000     
     8      (1,2481)              0.0000000     
     9      (1,2479)              0.0000000     
     10     (1,2478)              0.0000000     
     11     (1,2399)              0.0000000     
     12     (1,2396)              0.0000000     
     13     (1,2394)              0.0000000     
     14     (1,2393)              0.0000000     
     15     (1,2304)              0.0000000     
     16     (1,2301)              0.0000000     
     17     (1,2300)              0.0000000     
     18     (1,2389)              0.0000000     
     19     (1,2386)              0.0000000     
     20     (1,2385)              0.0000000     
     21     (1,2296)              0.0000000     
     22     (1,2293)              0.0000000     
     23     (1,2292)              0.0000000     
     24     (1,2289)              0.0000000     
     25     (1,2288)              0.0000000     
     26     (1,2286)              0.0000000     
     27     (1,2283)              0.0000000     
     28     (1,2282)              0.0000000     
     29     (1,2279)              0.0000000     
     30     (1,2278)              0.0000000     
     31     (1,2275)              0.0000000     
     32     (1,2277)              0.0000000     
     33     (1,2276)              0.0000000     
     34     (1,2273)              0.0000000     
     35     (1,2272)              0.0000000     
     36     (1,2376)              0.0000000     
     37     (1,2373)              0.0000000     
     38     (1,2372)              0.0000000     
     39     (1,2369)              0.0000000     
     40     (1,2368)              0.0000000     
     41     (1,2370)              0.0000000     
     42     (1,2367)              0.0000000     
     43     (1,2366)              0.0000000     
     44     (1,2363)              0.0000000     
     45     (1,2362)              0.0000000     
     46     (1,2462)              0.0000000     
     47     (1,2459)              0.0000000     
     48     (1,2458)              0.0000000     
     49     (1,2460)              0.0000000     
     50     (1,2457)              0.0000000     
     51     (1,2538)              0.0000000     
     52     (1,2537)              0.0000000     
     53     (1,2539)              0.0000000     
     54     (1,2536)              0.0000000     
     55     (1,2614)              0.0000000     
     56     (1,2613)              0.0000000     
     57     (1,2615)              0.0000000     
     58     (1,2682)              0.0000000     
     59     (1,2684)              0.0000000     
     60     (1,2681)              0.0000000     
     61     (1,2762)              0.0000000     
     62     (1,2761)              0.0000000     
     63     (1,2763)              0.0000000     
     64     (1,2760)              0.0000000     
     65     (1,2759)              0.0000000     
     66     (1,2756)              0.0000000     
     67     (1,2755)              0.0000000     
     68     (1,2752)              0.0000000     
     69     (1,2751)              0.0000000     
     70     (1,2748)              0.0000000     
     71     (1,2831)              0.0000000     
     72     (1,2830)              0.0000000     
     73     (1,2827)              0.0000000     
     74     (1,2829)              0.0000000     
     75     (1,2828)              0.0000000     
     76     (1,2825)              0.0000000     
     77     (1,2824)              0.0000000     
     78     (1,2895)              0.0000000     
     79     (1,2892)              0.0000000     
     80     (1,2891)              0.0000000     
     81     (1,2888)              0.0000000     
     82     (1,2887)              0.0000000     
     83     (1,2884)              0.0000000     
     84     (1,2819)              0.0000000     
     85     (1,2818)              0.0000000     
     86     (1,2816)              0.0000000     
     87     (1,2813)              0.0000000     
     88     (1,2739)              0.0000000     
     89     (1,2738)              0.0000000     
     90     (1,2736)              0.0000000     
     91     (1,2733)              0.0000000     
     92     (1,2667)              0.0000000     
     93     (1,2666)              0.0000000     
     94     (1,2664)              0.0000000     
     95     (1,2600)             -9.6869885     
     96     (1,2597)             -96.647072     
     97     (1,2595)             -89.224173     
     98     (1,2520)             -26.141184     
     99     (1,2519)             -39.877915     
    100     (1,2517)             -30.566195     
    101     (1,2436)             -11.944740     
    102     (1,2434)              3.8662031     
    103     (1,2435)             -13.708678     
    104     (1,2438)             -19.086786     
    105     (1,2344)             -12.167082     
    106     (1,2342)              9.1185326     
    107     (1,2343)             -12.106315     
    108     (1,2251)              5.9001081     
    109     (1,2249)             -24.848044     
    110     (1,2183)             -58.758325     
    111     (1,2181)             -62.131097     
    112     (1,2114)             -35.795567     
    113     (1,2112)             -21.979941     
    114     (1,2044)             -0.16727572    
    115     (1,2043)              21.016576     
    116     (1,2041)              45.258666     
    117     (1,1972)              18.092278     
    118     (1,1969)             -22.007331     
    119     (1,1967)              13.405722     
    120     (1,1966)              2.1732377     
    121     (1,1893)             -0.62335660    
    122     (1,1894)             -9.1709643     
    123     (1,1892)              19.398274     
    124     (1,1895)             -16.750110     
    125     (1,1896)             -47.932533     
    126     (1,1819)              3.5076521     
    127     (1,1822)             -41.263434     
    128     (1,1820)             -142.46756     
    129     (1,1745)             -130.45456     
    130     (1,1742)             -101.23881     
    131     (1,1741)             -63.284804     
    132     (1,1738)             -91.250164     
    133     (1,1737)             -38.329199     
    134     (1,1735)             -50.904481     
    135     (1,1732)             -10.337750     
    136     (1,1653)             -44.618542     
    137     (1,1651)             -37.621431     
    138     (1,1654)             -49.256090     
    139     (1,1655)             -112.62392     
    140     (1,1658)             -55.413618     
    141     (1,1548)             -142.43713     
    142     (1,1546)             -107.92971     
    143     (1,1543)             -86.594981     
    144     (1,1453)             -60.187222     
    145     (1,1452)             -97.760597     
    146     (1,1449)             -73.591044     
    147     (1,1448)             -23.950106     
    148     (1,1538)             -49.164908     
    149     (1,1535)             -49.348789     
    150     (1,1537)             -50.159440     
    151     (1,1647)             -46.593030     
    152     (1,1649)             -63.360279     
    153     (1,1648)             -42.201786     
    154     (1,1645)             -51.801974     
    155     (1,1644)             -62.956705     
    156     (1,1642)             -63.172034     
    157     (1,1639)             -97.376021     
    158     (1,1638)             -41.874760     
    159     (1,1640)             -62.106645     
    160     (1,1637)             -71.059362     
    161     (1,1636)             -59.941340     
    162     (1,1633)             -47.036180     
    163     (1,1632)             -45.404191     
    164     (1,1629)             -30.913356     
    165     (1,1628)             -18.523905     
    166     (1,1625)             -30.091369     
    167     (1,1624)             -34.826327     
    168     (1,1621)             -17.750993     
    169     (1,1620)             -7.1085763     
    170     (1,1617)              7.1820671     
    171     (1,1615)             -14.820358     
    172     (1,1614)             -9.7377687     
    173     (1,1611)              8.3129983     
    174     (1,1525)              9.1713541     
    175     (1,1524)             -35.243690     
    176     (1,1521)             -8.3953544     
    177     (1,1519)             -5.5757260     
    178     (1,1518)              4.1304695     
    179     (1,1515)              12.517651     
    180     (1,1431)              24.106323     
    181     (1,1429)              34.399928     
    182     (1,1432)             -4.3922018     
    183     (1,1353)              2.9070512     
    184     (1,1351)              12.260005     
    185     (1,1274)              34.186075     
    186     (1,1272)              62.553316     
    187     (1,1194)             -91.860247     
    188     (1,1192)             -117.37429     
    189     (1,1189)             -14.529637     
    190     (1,1111)             -125.87776     
    191     (1,1109)             -80.954804     
    192     (1,1108)             -39.113066     
    193     (1,1030)             -76.418020     
    194     (1,1028)             -74.475096     
    195     (1,950)              -20.915944     
    196     (1,947)              -94.993744     
    197     (1,945)              -73.073322     
    198     (1,944)              -76.154832     
    199     (1,866)              -42.688381     
    200     (1,863)              -61.074669     
    201     (1,861)              -55.888075     
    202     (1,860)              -35.424833     
    203     (1,782)              -58.577263     
    204     (1,779)              -17.082784     
    205     (1,777)              -69.081241     
    206     (1,700)              -1.1883961     
    207     (1,699)              -51.276685     
    208     (1,697)              -11.773578     
    209     (1,694)              -22.646306     
    210     (1,618)              -41.009932     
    211     (1,617)              -29.771434     
    212     (1,615)              -41.265413     
    213     (1,612)              -9.1930295     
    214     (1,537)              -6.3766269     
    215     (1,535)              -82.727362     
    216     (1,534)              -93.695694     
    217     (1,531)              -1.6275823     
    218     (1,457)              -72.986352     
    219     (1,455)              -70.307545     
    220     (1,382)              -39.983886     
    221     (1,381)              -58.815505     
    222     (1,378)              -41.983817     
    223     (1,377)              -36.496061     
    224     (1,375)              -9.8482289     
    225     (1,372)              -36.593577     
    226     (1,371)              -9.8057784     
    227     (1,299)              -23.630159     
    228     (1,296)              -15.998083     
    229     (1,294)              -3.4764783     
    230     (1,293)              -11.302725     
    231     (1,290)               2.6099103     
    232     (1,289)               13.145913     
    233     (1,286)               4.9022114     
    234     (1,250)               32.719498     
    235     (1,249)               73.667775     
    236     (1,246)              -16.025734     
    237     (1,244)              -40.071199     
    238     (1,243)              -143.72264     
    239     (1,209)              -71.464751     
    240     (1,206)              -101.21036     
    241     (1,204)              -55.374183     
    242     (1,203)              -84.721424     
    243     (1,171)              -49.070818     
    244     (1,168)              -88.482469     
    245     (1,166)              -7.4132692     
    246     (1,165)              -92.871941     
    247     (1,135)              -7.3015163     
    248     (1,132)              -86.089941     
    249     (1,130)              -6.8045232     
    250     (1,129)              -81.893173     
    251     (1,101)              -6.7111389     
    252     (1,98)               -78.555512     
    253     (1,96)               -6.3698371     
    254     (1,95)               -75.533721     
    255     (1,69)               -6.3772501     
    256     (1,66)               -72.022452     
    257     (1,65)               -3.7235506     
    258     (1,63)               -67.842765     
    259     (1,60)               -17.584414     
    260     (1,36)               -121.07445     
    261     (1,35)               -51.629828     
    262     (1,33)               -98.299922     
    263     (1,30)               -93.760553     
    264     (1,8)                -110.44530     
    265     (1,7)                -131.26613     
    266     (1,5)                -22.767795     
 -----------------------------------------------



 UBDSV06 SAVING     FLOW-JA-FACE IN MODEL EXPERIMENTAL     PACKAGE SFR             CONNECTED TO MODEL EXPERIMENTAL     PACKAGE SFR              ON UNIT   1015 AT TIME STEP     48, STRESS PERIOD      2
 UBDSV06 SAVING              GWF IN MODEL EXPERIMENTAL     PACKAGE SFR             CONNECTED TO MODEL EXPERIMENTAL     PACKAGE EXPERIMENTAL     ON UNIT   1015 AT TIME STEP     48, STRESS PERIOD      2
 UBDSV06 SAVING         RAINFALL IN MODEL EXPERIMENTAL     PACKAGE SFR             CONNECTED TO MODEL EXPERIMENTAL     PACKAGE SFR              ON UNIT   1015 AT TIME STEP     48, STRESS PERIOD      2
 UBDSV06 SAVING      EVAPORATION IN MODEL EXPERIMENTAL     PACKAGE SFR             CONNECTED TO MODEL EXPERIMENTAL     PACKAGE SFR              ON UNIT   1015 AT TIME STEP     48, STRESS PERIOD      2
 UBDSV06 SAVING           RUNOFF IN MODEL EXPERIMENTAL     PACKAGE SFR             CONNECTED TO MODEL EXPERIMENTAL     PACKAGE SFR              ON UNIT   1015 AT TIME STEP     48, STRESS PERIOD      2
 UBDSV06 SAVING       EXT-INFLOW IN MODEL EXPERIMENTAL     PACKAGE SFR             CONNECTED TO MODEL EXPERIMENTAL     PACKAGE SFR              ON UNIT   1015 AT TIME STEP     48, STRESS PERIOD      2
 UBDSV06 SAVING      EXT-OUTFLOW IN MODEL EXPERIMENTAL     PACKAGE SFR             CONNECTED TO MODEL EXPERIMENTAL     PACKAGE SFR              ON UNIT   1015 AT TIME STEP     48, STRESS PERIOD      2
 UBDSV06 SAVING          STORAGE IN MODEL EXPERIMENTAL     PACKAGE SFR             CONNECTED TO MODEL EXPERIMENTAL     PACKAGE SFR              ON UNIT   1015 AT TIME STEP     48, STRESS PERIOD      2
1
  HEAD IN LAYER   1 AT END OF TIME STEP  48 IN STRESS PERIOD    2
  ---------------------------------------------------------------------------

                1               2               3               4               5               6               7               8               9              10
               11              12              13              14              15              16              17              18              19              20
               21              22              23              24              25              26              27              28              29              30
               31              32              33              34              35              36              37              38              39              40
               41              42              43              44              45              46              47              48              49              50
               51              52              53              54              55              56              57              58              59              60
               61              62              63              64              65              66              67              68              69              70
               71              72              73              74              75              76              77              78              79              80
               81              82              83              84              85              86              87              88              89              90
               91              92              93              94              95              96              97              98              99             100
              101             102             103             104             105             106             107             108             109             110
              111             112             113             114             115             116             117             118             119             120
              121             122             123             124             125             126             127             128             129             130
              131             132             133             134             135             136             137             138             139             140
              141             142             143             144             145             146             147             148             149             150
              151             152             153             154             155             156             157             158             159             160
              161             162             163             164             165             166             167             168             169             170
              171             172             173             174             175             176             177             178             179             180
              181             182             183             184             185             186             187             188             189             190
              191             192             193             194             195             196             197             198             199             200
              201             202             203             204             205             206             207             208             209             210
              211             212             213             214             215             216             217             218             219             220
              221             222             223             224             225             226             227             228             229             230
              231             232             233             234             235             236             237             238             239             240
              241             242             243             244             245             246             247             248             249             250
              251             252             253             254             255             256             257             258             259             260
              261             262             263             264             265             266             267             268             269             270
              271             272             273             274             275             276             277             278             279             280
              281             282             283             284             285             286             287             288             289             290
              291             292             293             294             295             296             297             298             299             300
              301             302             303             304             305             306             307             308             309             310
              311             312             313             314             315             316             317             318             319             320
              321             322             323             324             325             326             327             328             329             330
              331             332             333             334             335             336             337             338             339             340
              341             342             343             344             345             346             347             348             349             350
              351             352             353             354             355             356             357             358             359             360
              361             362             363             364             365             366             367             368             369             370
              371             372             373             374             375             376             377             378             379             380
              381             382             383             384             385             386             387             388             389             390
              391             392             393             394             395             396             397             398             399             400
              401             402             403             404             405             406             407             408             409             410
              411             412             413             414             415             416             417             418             419             420
              421             422             423             424             425             426             427             428             429             430
              431             432             433             434             435             436             437             438             439             440
              441             442             443             444             445             446             447             448             449             450
              451             452             453             454             455             456             457             458             459             460
              461             462             463             464             465             466             467             468             469             470
              471             472             473             474             475             476             477             478             479             480
              481             482             483             484             485             486             487             488             489             490
              491             492             493             494             495             496             497             498             499             500
              501             502             503             504             505             506             507             508             509             510
              511             512             513             514             515             516             517             518             519             520
              521             522             523             524             525             526             527             528             529             530
              531             532             533             534             535             536             537             538             539             540
              541             542             543             544             545             546             547             548             549             550
              551             552             553             554             555             556             557             558             559             560
              561             562             563             564             565             566             567             568             569             570
              571             572             573             574             575             576             577             578             579             580
              581             582             583             584             585             586             587             588             589             590
              591             592             593             594             595             596             597             598             599             600
              601             602             603             604             605             606             607             608             609             610
              611             612             613             614             615             616             617             618             619             620
              621             622             623             624             625             626             627             628             629             630
              631             632             633             634             635             636             637             638             639             640
              641             642             643             644             645             646             647             648             649             650
              651             652             653             654             655             656             657             658             659             660
              661             662             663             664             665             666             667             668             669             670
              671             672             673             674             675             676             677             678             679             680
              681             682             683             684             685             686             687             688             689             690
              691             692             693             694             695             696             697             698             699             700
              701             702             703             704             705             706             707             708             709             710
              711             712             713             714             715             716             717             718             719             720
              721             722             723             724             725             726             727             728             729             730
              731             732             733             734             735             736             737             738             739             740
              741             742             743             744             745             746             747             748             749             750
              751             752             753             754             755             756             757             758             759             760
              761             762             763             764             765             766             767             768             769             770
              771             772             773             774             775             776             777             778             779             780
              781             782             783             784             785             786             787             788             789             790
              791             792             793             794             795             796             797             798             799             800
              801             802             803             804             805             806             807             808             809             810
              811             812             813             814             815             816             817             818             819             820
              821             822             823             824             825             826             827             828             829             830
              831             832             833             834             835             836             837             838             839             840
              841             842             843             844             845             846             847             848             849             850
              851             852             853             854             855             856             857             858             859             860
              861             862             863             864             865             866             867             868             869             870
              871             872             873             874             875             876             877             878             879             880
              881             882             883             884             885             886             887             888             889             890
              891             892             893             894             895             896             897             898             899             900
              901             902             903             904             905             906             907             908             909             910
              911             912             913             914             915             916             917             918             919             920
              921             922             923             924             925             926             927             928             929             930
              931             932             933             934             935             936             937             938             939             940
              941             942             943             944             945             946             947             948             949             950
              951             952             953             954             955             956             957             958             959             960
              961             962             963             964             965             966             967             968             969             970
              971             972             973             974             975             976             977             978             979             980
              981             982             983             984             985             986             987             988             989             990
              991             992             993             994             995             996             997             998             999            1000
             1001            1002            1003            1004            1005            1006            1007            1008            1009            1010
             1011            1012            1013            1014            1015            1016            1017            1018            1019            1020
             1021            1022            1023            1024            1025            1026            1027            1028            1029            1030
             1031            1032            1033            1034            1035            1036            1037            1038            1039            1040
             1041            1042            1043            1044            1045            1046            1047            1048            1049            1050
             1051            1052            1053            1054            1055            1056            1057            1058            1059            1060
             1061            1062            1063            1064            1065            1066            1067            1068            1069            1070
             1071            1072            1073            1074            1075            1076            1077            1078            1079            1080
             1081            1082            1083            1084            1085            1086            1087            1088            1089            1090
             1091            1092            1093            1094            1095            1096            1097            1098            1099            1100
             1101            1102            1103            1104            1105            1106            1107            1108            1109            1110
             1111            1112            1113            1114            1115            1116            1117            1118            1119            1120
             1121            1122            1123            1124            1125            1126            1127            1128            1129            1130
             1131            1132            1133            1134            1135            1136            1137            1138            1139            1140
             1141            1142            1143            1144            1145            1146            1147            1148            1149            1150
             1151            1152            1153            1154            1155            1156            1157            1158            1159            1160
             1161            1162            1163            1164            1165            1166            1167            1168            1169            1170
             1171            1172            1173            1174            1175            1176            1177            1178            1179            1180
             1181            1182            1183            1184            1185            1186            1187            1188            1189            1190
             1191            1192            1193            1194            1195            1196            1197            1198            1199            1200
             1201            1202            1203            1204            1205            1206            1207            1208            1209            1210
             1211            1212            1213            1214            1215            1216            1217            1218            1219            1220
             1221            1222            1223            1224            1225            1226            1227            1228            1229            1230
             1231            1232            1233            1234            1235            1236            1237            1238            1239            1240
             1241            1242            1243            1244            1245            1246            1247            1248            1249            1250
             1251            1252            1253            1254            1255            1256            1257            1258            1259            1260
             1261            1262            1263            1264            1265            1266            1267            1268            1269            1270
             1271            1272            1273            1274            1275            1276            1277            1278            1279            1280
             1281            1282            1283            1284            1285            1286            1287            1288            1289            1290
             1291            1292            1293            1294            1295            1296            1297            1298            1299            1300
             1301            1302            1303            1304            1305            1306            1307            1308            1309            1310
             1311            1312            1313            1314            1315            1316            1317            1318            1319            1320
             1321            1322            1323            1324            1325            1326            1327            1328            1329            1330
             1331            1332            1333            1334            1335            1336            1337            1338            1339            1340
             1341            1342            1343            1344            1345            1346            1347            1348            1349            1350
             1351            1352            1353            1354            1355            1356            1357            1358            1359            1360
             1361            1362            1363            1364            1365            1366            1367            1368            1369            1370
             1371            1372            1373            1374            1375            1376            1377            1378            1379            1380
             1381            1382            1383            1384            1385            1386            1387            1388            1389            1390
             1391            1392            1393            1394            1395            1396            1397            1398            1399            1400
             1401            1402            1403            1404            1405            1406            1407            1408            1409            1410
             1411            1412            1413            1414            1415            1416            1417            1418            1419            1420
             1421            1422            1423            1424            1425            1426            1427            1428            1429            1430
             1431            1432            1433            1434            1435            1436            1437            1438            1439            1440
             1441            1442            1443            1444            1445            1446            1447            1448            1449            1450
             1451            1452            1453            1454            1455            1456            1457            1458            1459            1460
             1461            1462            1463            1464            1465            1466            1467            1468            1469            1470
             1471            1472            1473            1474            1475            1476            1477            1478            1479            1480
             1481            1482            1483            1484            1485            1486            1487            1488            1489            1490
             1491            1492            1493            1494            1495            1496            1497            1498            1499            1500
             1501            1502            1503            1504            1505            1506            1507            1508            1509            1510
             1511            1512            1513            1514            1515            1516            1517            1518            1519            1520
             1521            1522            1523            1524            1525            1526            1527            1528            1529            1530
             1531            1532            1533            1534            1535            1536            1537            1538            1539            1540
             1541            1542            1543            1544            1545            1546            1547            1548            1549            1550
             1551            1552            1553            1554            1555            1556            1557            1558            1559            1560
             1561            1562            1563            1564            1565            1566            1567            1568            1569            1570
             1571            1572            1573            1574            1575            1576            1577            1578            1579            1580
             1581            1582            1583            1584            1585            1586            1587            1588            1589            1590
             1591            1592            1593            1594            1595            1596            1597            1598            1599            1600
             1601            1602            1603            1604            1605            1606            1607            1608            1609            1610
             1611            1612            1613            1614            1615            1616            1617            1618            1619            1620
             1621            1622            1623            1624            1625            1626            1627            1628            1629            1630
             1631            1632            1633            1634            1635            1636            1637            1638            1639            1640
             1641            1642            1643            1644            1645            1646            1647            1648            1649            1650
             1651            1652            1653            1654            1655            1656            1657            1658            1659            1660
             1661            1662            1663            1664            1665            1666            1667            1668            1669            1670
             1671            1672            1673            1674            1675            1676            1677            1678            1679            1680
             1681            1682            1683            1684            1685            1686            1687            1688            1689            1690
             1691            1692            1693            1694            1695            1696            1697            1698            1699            1700
             1701            1702            1703            1704            1705            1706            1707            1708            1709            1710
             1711            1712            1713            1714            1715            1716            1717            1718            1719            1720
             1721            1722            1723            1724            1725            1726            1727            1728            1729            1730
             1731            1732            1733            1734            1735            1736            1737            1738            1739            1740
             1741            1742            1743            1744            1745            1746            1747            1748            1749            1750
             1751            1752            1753            1754            1755            1756            1757            1758            1759            1760
             1761            1762            1763            1764            1765            1766            1767            1768            1769            1770
             1771            1772            1773            1774            1775            1776            1777            1778            1779            1780
             1781            1782            1783            1784            1785            1786            1787            1788            1789            1790
             1791            1792            1793            1794            1795            1796            1797            1798            1799            1800
             1801            1802            1803            1804            1805            1806            1807            1808            1809            1810
             1811            1812            1813            1814            1815            1816            1817            1818            1819            1820
             1821            1822            1823            1824            1825            1826            1827            1828            1829            1830
             1831            1832            1833            1834            1835            1836            1837            1838            1839            1840
             1841            1842            1843            1844            1845            1846            1847            1848            1849            1850
             1851            1852            1853            1854            1855            1856            1857            1858            1859            1860
             1861            1862            1863            1864            1865            1866            1867            1868            1869            1870
             1871            1872            1873            1874            1875            1876            1877            1878            1879            1880
             1881            1882            1883            1884            1885            1886            1887            1888            1889            1890
             1891            1892            1893            1894            1895            1896            1897            1898            1899            1900
             1901            1902            1903            1904            1905            1906            1907            1908            1909            1910
             1911            1912            1913            1914            1915            1916            1917            1918            1919            1920
             1921            1922            1923            1924            1925            1926            1927            1928            1929            1930
             1931            1932            1933            1934            1935            1936            1937            1938            1939            1940
             1941            1942            1943            1944            1945            1946            1947            1948            1949            1950
             1951            1952            1953            1954            1955            1956            1957            1958            1959            1960
             1961            1962            1963            1964            1965            1966            1967            1968            1969            1970
             1971            1972            1973            1974            1975            1976            1977            1978            1979            1980
             1981            1982            1983            1984            1985            1986            1987            1988            1989            1990
             1991            1992            1993            1994            1995            1996            1997            1998            1999            2000
             2001            2002            2003            2004            2005            2006            2007            2008            2009            2010
             2011            2012            2013            2014            2015            2016            2017            2018            2019            2020
             2021            2022            2023            2024            2025            2026            2027            2028            2029            2030
             2031            2032            2033            2034            2035            2036            2037            2038            2039            2040
             2041            2042            2043            2044            2045            2046            2047            2048            2049            2050
             2051            2052            2053            2054            2055            2056            2057            2058            2059            2060
             2061            2062            2063            2064            2065            2066            2067            2068            2069            2070
             2071            2072            2073            2074            2075            2076            2077            2078            2079            2080
             2081            2082            2083            2084            2085            2086            2087            2088            2089            2090
             2091            2092            2093            2094            2095            2096            2097            2098            2099            2100
             2101            2102            2103            2104            2105            2106            2107            2108            2109            2110
             2111            2112            2113            2114            2115            2116            2117            2118            2119            2120
             2121            2122            2123            2124            2125            2126            2127            2128            2129            2130
             2131            2132            2133            2134            2135            2136            2137            2138            2139            2140
             2141            2142            2143            2144            2145            2146            2147            2148            2149            2150
             2151            2152            2153            2154            2155            2156            2157            2158            2159            2160
             2161            2162            2163            2164            2165            2166            2167            2168            2169            2170
             2171            2172            2173            2174            2175            2176            2177            2178            2179            2180
             2181            2182            2183            2184            2185            2186            2187            2188            2189            2190
             2191            2192            2193            2194            2195            2196            2197            2198            2199            2200
             2201            2202            2203            2204            2205            2206            2207            2208            2209            2210
             2211            2212            2213            2214            2215            2216            2217            2218            2219            2220
             2221            2222            2223            2224            2225            2226            2227            2228            2229            2230
             2231            2232            2233            2234            2235            2236            2237            2238            2239            2240
             2241            2242            2243            2244            2245            2246            2247            2248            2249            2250
             2251            2252            2253            2254            2255            2256            2257            2258            2259            2260
             2261            2262            2263            2264            2265            2266            2267            2268            2269            2270
             2271            2272            2273            2274            2275            2276            2277            2278            2279            2280
             2281            2282            2283            2284            2285            2286            2287            2288            2289            2290
             2291            2292            2293            2294            2295            2296            2297            2298            2299            2300
             2301            2302            2303            2304            2305            2306            2307            2308            2309            2310
             2311            2312            2313            2314            2315            2316            2317            2318            2319            2320
             2321            2322            2323            2324            2325            2326            2327            2328            2329            2330
             2331            2332            2333            2334            2335            2336            2337            2338            2339            2340
             2341            2342            2343            2344            2345            2346            2347            2348            2349            2350
             2351            2352            2353            2354            2355            2356            2357            2358            2359            2360
             2361            2362            2363            2364            2365            2366            2367            2368            2369            2370
             2371            2372            2373            2374            2375            2376            2377            2378            2379            2380
             2381            2382            2383            2384            2385            2386            2387            2388            2389            2390
             2391            2392            2393            2394            2395            2396            2397            2398            2399            2400
             2401            2402            2403            2404            2405            2406            2407            2408            2409            2410
             2411            2412            2413            2414            2415            2416            2417            2418            2419            2420
             2421            2422            2423            2424            2425            2426            2427            2428            2429            2430
             2431            2432            2433            2434            2435            2436            2437            2438            2439            2440
             2441            2442            2443            2444            2445            2446            2447            2448            2449            2450
             2451            2452            2453            2454            2455            2456            2457            2458            2459            2460
             2461            2462            2463            2464            2465            2466            2467            2468            2469            2470
             2471            2472            2473            2474            2475            2476            2477            2478            2479            2480
             2481            2482            2483            2484            2485            2486            2487            2488            2489            2490
             2491            2492            2493            2494            2495            2496            2497            2498            2499            2500
             2501            2502            2503            2504            2505            2506            2507            2508            2509            2510
             2511            2512            2513            2514            2515            2516            2517            2518            2519            2520
             2521            2522            2523            2524            2525            2526            2527            2528            2529            2530
             2531            2532            2533            2534            2535            2536            2537            2538            2539            2540
             2541            2542            2543            2544            2545            2546            2547            2548            2549            2550
             2551            2552            2553            2554            2555            2556            2557            2558            2559            2560
             2561            2562            2563            2564            2565            2566            2567            2568            2569            2570
             2571            2572            2573            2574            2575            2576            2577            2578            2579            2580
             2581            2582            2583            2584            2585            2586            2587            2588            2589            2590
             2591            2592            2593            2594            2595            2596            2597            2598            2599            2600
             2601            2602            2603            2604            2605            2606            2607            2608            2609            2610
             2611            2612            2613            2614            2615            2616            2617            2618            2619            2620
             2621            2622            2623            2624            2625            2626            2627            2628            2629            2630
             2631            2632            2633            2634            2635            2636            2637            2638            2639            2640
             2641            2642            2643            2644            2645            2646            2647            2648            2649            2650
             2651            2652            2653            2654            2655            2656            2657            2658            2659            2660
             2661            2662            2663            2664            2665            2666            2667            2668            2669            2670
             2671            2672            2673            2674            2675            2676            2677            2678            2679            2680
             2681            2682            2683            2684            2685            2686            2687            2688            2689            2690
             2691            2692            2693            2694            2695            2696            2697            2698            2699            2700
             2701            2702            2703            2704            2705            2706            2707            2708            2709            2710
             2711            2712            2713            2714            2715            2716            2717            2718            2719            2720
             2721            2722            2723            2724            2725            2726            2727            2728            2729            2730
             2731            2732            2733            2734            2735            2736            2737            2738            2739            2740
             2741            2742            2743            2744            2745            2746            2747            2748            2749            2750
             2751            2752            2753            2754            2755            2756            2757            2758            2759            2760
             2761            2762            2763            2764            2765            2766            2767            2768            2769            2770
             2771            2772            2773            2774            2775            2776            2777            2778            2779            2780
             2781            2782            2783            2784            2785            2786            2787            2788            2789            2790
             2791            2792            2793            2794            2795            2796            2797            2798            2799            2800
             2801            2802            2803            2804            2805            2806            2807            2808            2809            2810
             2811            2812            2813            2814            2815            2816            2817            2818            2819            2820
             2821            2822            2823            2824            2825            2826            2827            2828            2829            2830
             2831            2832            2833            2834            2835            2836            2837            2838            2839            2840
             2841            2842            2843            2844            2845            2846            2847            2848            2849            2850
             2851            2852            2853            2854            2855            2856            2857            2858            2859            2860
             2861            2862            2863            2864            2865            2866            2867            2868            2869            2870
             2871            2872            2873            2874            2875            2876            2877            2878            2879            2880
             2881            2882            2883            2884            2885            2886            2887            2888            2889            2890
             2891            2892            2893            2894            2895            2896            2897            2898            2899            2900
             2901            2902            2903            2904            2905            2906            2907            2908            2909            2910
             2911            2912            2913            2914            2915            2916            2917            2918            2919            2920
             2921            2922            2923            2924            2925            2926            2927            2928            2929            2930
             2931            2932            2933            2934            2935            2936            2937            2938            2939            2940
             2941            2942            2943            2944            2945            2946            2947            2948            2949            2950
             2951            2952            2953            2954            2955            2956            2957            2958            2959            2960
             2961            2962            2963            2964            2965            2966            2967            2968            2969            2970
             2971            2972            2973            2974            2975            2976            2977            2978            2979            2980
             2981            2982            2983            2984            2985            2986            2987            2988            2989            2990
             2991            2992            2993            2994            2995            2996            2997            2998            2999            3000
             3001            3002            3003            3004            3005            3006            3007            3008            3009            3010
             3011            3012            3013            3014            3015            3016            3017            3018            3019            3020
             3021            3022            3023            3024            3025            3026            3027            3028            3029            3030
             3031            3032            3033            3034            3035            3036            3037            3038            3039            3040
             3041            3042            3043            3044            3045            3046            3047            3048            3049            3050
             3051            3052            3053            3054            3055            3056            3057            3058            3059            3060
             3061            3062            3063            3064            3065            3066            3067            3068            3069            3070
             3071            3072            3073            3074            3075            3076            3077            3078            3079            3080
             3081            3082            3083            3084            3085            3086            3087            3088            3089            3090
             3091            3092            3093            3094            3095            3096            3097            3098            3099            3100
             3101            3102            3103            3104            3105            3106            3107            3108            3109            3110
             3111            3112            3113            3114            3115            3116            3117            3118            3119            3120
             3121            3122            3123            3124            3125            3126            3127            3128            3129            3130
             3131            3132            3133            3134            3135
 ................................................................................................................................................................
   1      133.790         133.777         133.742         133.669         133.618         133.611         133.495         133.474         133.594         133.683    
          133.759         133.828         133.891         133.951         134.009         134.064         134.119         134.176         134.232         134.282    
          134.331         134.376         134.413         133.701         133.722         133.715         133.682         133.618         133.512         133.433    
          133.533         133.484         133.423         133.481         133.428         133.412         133.559         133.654         133.733         133.805    
          133.874         133.941         134.006         134.069         134.132         134.197         134.256         134.313         134.373         134.441    
          134.548         133.668         133.682         133.689         133.681         133.657         133.614         133.551         133.488         133.462    
          133.519         133.503         133.465         133.512         133.487         133.471         133.568         133.603         133.521         133.569    
          133.652         133.731         133.808         133.884         133.957         134.028         134.096         134.165         134.232         134.298    
          134.365         134.439         134.527         134.620         133.655         133.663         133.670         133.673         133.666         133.649    
          133.622         133.588         133.555         133.521         133.474         133.520         133.498         133.475         133.571         133.607    
          133.525         133.574         133.659         133.745         133.830         133.913         133.991         134.064         134.138         134.208    
          134.279         134.353         134.429         134.512         134.599         134.693         133.645         133.652         133.659         133.664    
          133.666         133.662         133.651         133.635         133.614         133.592         133.569         133.532         133.477         133.525    
          133.505         133.479         133.580         133.618         133.533         133.585         133.677         133.776         133.872         133.958    
          134.035         134.113         134.186         134.259         134.336         134.416         134.500         134.588         134.678         134.769    
          133.635         133.643         133.650         133.657         133.662         133.665         133.664         133.658         133.649         133.638    
          133.624         133.607         133.585         133.546         133.484         133.533         133.519         133.490         133.588         133.635    
          133.525         133.597         133.716         133.836         133.932         134.010         134.089         134.162         134.237         134.317    
          134.399         134.488         134.580         134.672         134.766         134.862         133.621         133.631         133.640         133.649    
          133.656         133.663         133.667         133.669         133.668         133.665         133.659         133.652         133.643         133.630    
          133.608         133.573         133.504         133.537         133.554         133.522         133.628         133.701         133.575         133.685    
          133.815         133.917         133.990         134.064         134.136         134.211         134.293         134.380         134.473         134.572    
          134.670         134.770         134.876         134.984         133.600         133.613         133.626         133.638         133.648         133.657    
          133.665         133.672         133.676         133.679         133.680         133.680         133.679         133.677         133.673         133.667    
          133.657         133.641         133.579         133.687         133.685         133.746         133.807         133.857         133.860         133.894    
          133.922         133.974         134.036         134.103         134.178         134.263         134.356         134.456         134.561         134.667    
          134.777         134.896         135.025         135.166         133.553         133.585         133.605         133.622         133.636         133.648    
          133.659         133.669         133.678         133.685         133.691         133.697         133.701         133.705         133.709         133.714    
          133.720         133.730         133.750         133.796         133.856         133.893         133.860         133.891         133.922         133.933    
          133.918         133.933         133.948         133.965         133.948         133.954         133.994         134.017         133.969         133.999    
          134.058         134.130         134.222         134.325         134.435         134.546         134.659         134.780         134.913         135.065    
          135.267         135.600         135.822         135.991         136.123         136.236         136.338         136.430         136.517         136.597    
          136.675         136.751         136.828         136.907         136.984         137.061         137.139         137.220         137.295         137.368    
          137.436         137.504         137.568         137.636         137.782         137.950         138.054         138.127         138.214         138.359    
          138.507         138.587         138.766         138.953         139.116         139.272         139.529         133.550         133.579         133.601    
          133.619         133.635         133.649         133.663         133.674         133.685         133.695         133.704         133.713         133.721    
          133.730         133.740         133.751         133.764         133.781         133.807         133.846         133.892         133.932         133.959    
          133.965         133.970         133.974         133.978         133.996         134.018         133.974         133.981         134.051         134.084    
          133.997         134.035         134.161         134.288         134.408         134.526         134.645         134.773         134.912         135.065    
          135.249         135.474         135.667         135.833         135.971         136.091         136.198         136.294         136.386         136.474    
          136.558         136.638         136.720         136.802         136.885         136.968         137.054         137.143         137.231         137.320    
          137.412         137.506         137.605         137.727         137.863         138.001         138.127         138.239         138.352         138.490    
          138.631         138.838         138.979         139.179         139.396         139.642         140.083         140.796         133.549         133.576    
          133.599         133.619         133.636         133.652         133.666         133.680         133.693         133.705         133.717         133.729    
          133.741         133.753         133.767         133.782         133.800         133.821         133.848         133.880         133.916         133.950    
          133.978         133.997         134.008         134.006         134.000         134.015         134.001         134.099         134.245         134.377    
          134.499         134.623         134.757         134.896         135.042         135.210         135.389         135.557         135.716         135.854    
          135.977         136.089         136.191         136.285         136.377         136.465         136.548         136.634         136.720         136.808    
          136.897         136.989         137.088         137.189         137.287         137.399         137.504         137.615         137.748         137.884    
          138.013         138.154         138.279         138.402         138.542         138.694         138.922         139.078         139.295         139.519    
          139.787         140.172         140.644         141.103         133.548         133.576         133.599         133.620         133.638         133.655    
          133.671         133.686         133.702         133.716         133.730         133.745         133.759         133.774         133.791         133.809    
          133.830         133.853         133.880         133.910         133.941         133.972         134.000         134.025         134.043         134.039    
          134.035         134.060         134.066         134.025         134.060         134.076         134.104         134.197         134.340         134.466    
          134.598         134.733         134.869         135.008         135.165         135.324         135.477         135.626         135.761         135.884    
          135.999         136.102         136.199         136.293         136.384         136.472         136.561         136.652         136.745         136.840    
          136.940         137.047         137.159         137.261         137.389         137.501         137.624         137.757         137.896         138.027    
          138.175         138.307         138.432         138.573         138.778         138.977         139.133         139.380         139.592         139.847    
          140.184         140.540         140.925         141.322         133.549         133.576         133.600         133.621         133.641         133.659    
          133.676         133.693         133.710         133.727         133.743         133.759         133.776         133.794         133.813         133.833    
          133.855         133.880         133.907         133.936         133.966         133.995         134.024         134.052         134.077         134.099    
          134.109         134.123         134.126         134.139         134.145         134.196         134.148         134.181         134.294         134.429    
          134.566         134.700         134.829         134.968         135.124         135.271         135.415         135.553         135.684         135.807    
          135.922         136.026         136.125         136.220         136.313         136.406         136.499         136.594         136.692         136.792    
          136.899         137.012         137.137         137.241         137.373         137.509         137.631         137.765         137.904         138.032    
          138.176         138.347         138.459         138.638         138.830         139.020         139.179         139.418         139.629         139.872    
          140.159         140.470         140.799         141.143         141.490         133.550         133.578         133.602         133.624         133.645    
          133.664         133.682         133.700         133.718         133.736         133.755         133.773         133.792         133.812         133.833    
          133.855         133.878         133.904         133.931         133.960         133.990         134.019         134.049         134.078         134.106    
          134.134         134.162         134.174         134.190         134.187         134.200         134.235         134.283         134.210         134.263    
          134.372         134.517         134.653         134.780         134.936         135.084         135.225         135.363         135.494         135.621    
          135.741         135.854         135.958         136.057         136.154         136.250         136.346         136.444         136.544         136.645    
          136.751         136.863         136.983         137.113         137.224         137.362         137.510         137.635         137.774         137.903    
          138.036         138.199         138.382         138.490         138.664         138.861         139.048         139.214         139.442         139.648    
          139.874         140.131         140.409         140.701         140.999         141.306         141.617         133.552         133.580         133.605    
          133.628         133.649         133.669         133.688         133.708         133.727         133.746         133.765         133.786         133.807    
          133.828         133.851         133.874         133.899         133.926         133.953         133.982         134.012         134.043         134.073    
          134.104         134.134         134.164         134.192         134.217         134.222         134.225         134.231         134.231         134.289    
          134.345         134.244         134.314         134.444         134.592         134.731         134.898         135.047         135.188         135.319    
          135.445         135.567         135.685         135.794         135.898         135.997         136.095         136.193         136.292         136.394    
          136.498         136.605         136.716         136.833         136.958         137.091         137.213         137.355         137.505         137.639    
          137.776         137.908         138.039         138.215         138.388         138.545         138.708         138.881         139.065         139.250    
          139.450         139.654         139.867         140.101         140.353         140.619         140.889         141.156         141.432         141.704    
          133.554         133.583         133.608         133.631         133.653         133.674         133.695         133.715         133.735         133.756    
          133.776         133.798         133.821         133.844         133.868         133.893         133.919         133.946         133.974         134.004    
          134.034         134.066         134.097         134.129         134.161         134.192         134.220         134.245         134.256         134.240    
          134.263         134.258         134.246         134.347         134.411         134.290         134.372         134.522         134.686         134.848    
          135.012         135.153         135.282         135.405         135.521         135.633         135.741         135.843         135.941         136.040    
          136.140         136.242         136.348         136.457         136.570         136.687         136.808         136.938         137.073         137.205    
          137.351         137.500         137.640         137.777         137.914         138.047         138.235         138.413         138.573         138.737    
          138.914         139.086         139.267         139.451         139.654         139.857         140.072         140.304         140.550         140.803    
          141.058         141.333         141.680         133.557         133.586         133.611         133.635         133.658         133.679         133.701    
          133.722         133.743         133.765         133.787         133.809         133.833         133.858         133.884         133.910         133.937    
          133.965         133.994         134.025         134.056         134.088         134.121         134.155         134.188         134.220         134.251    
          134.277         134.294         134.295         134.258         134.301         134.295         134.283         134.421         134.506         134.377    
          134.485         134.642         134.810         134.975         135.124         135.252         135.371         135.481         135.588         135.692    
          135.790         135.890         135.987         136.089         136.194         136.305         136.419         136.538         136.662         136.789    
          136.923         137.063         137.201         137.349         137.498         137.640         137.780         137.922         138.075         138.254    
          138.427         138.596         138.764         138.936         139.108         139.273         139.454         139.650         139.845         140.046    
          140.261         140.492         140.731         140.984         141.268         141.652         133.559         133.589         133.615         133.639    
          133.662         133.684         133.706         133.729         133.751         133.774         133.797         133.820         133.845         133.872    
          133.898         133.925         133.954         133.983         134.013         134.045         134.077         134.111         134.145         134.180    
          134.216         134.249         134.283         134.313         134.337         134.351         134.352         134.348         134.460         134.341    
          134.439         134.607         134.786         134.948         135.099         135.226         135.339         135.445         135.545         135.643    
          135.738         135.837         135.935         136.038         136.146         136.261         136.382         136.508         136.639         136.773    
          136.911         137.055         137.201         137.350         137.499         137.640         137.792         137.938         138.095         138.267    
          138.448         138.617         138.785         138.956         139.119         139.282         139.457         139.644         139.833         140.024    
          140.225         140.443         140.674         140.924         141.222         141.627         133.562         133.593         133.619         133.643    
          133.666         133.689         133.712         133.735         133.758         133.782         133.806         133.831         133.856         133.883    
          133.912         133.940         133.970         134.000         134.032         134.065         134.099         134.134         134.170         134.207    
          134.243         134.280         134.317         134.353         134.386         134.412         134.421         134.371         134.390         134.419    
          134.387         134.576         134.776         134.931         135.076         135.207         135.314         135.412         135.505         135.596    
          135.688         135.781         135.879         135.982         136.095         136.217         136.346         136.481         136.618         136.759    
          136.903         137.051         137.206         137.356         137.505         137.648         137.803         137.955         138.112         138.284    
          138.469         138.631         138.801         138.970         139.127         139.289         139.460         139.640         139.823         140.005    
          140.196         140.404         140.628         140.873         141.177         141.608         133.566         133.597         133.622         133.646    
          133.669         133.693         133.716         133.740         133.765         133.789         133.814         133.840         133.867         133.894    
          133.924         133.955         133.985         134.017         134.050         134.084         134.120         134.157         134.195         134.233    
          134.271         134.311         134.353         134.397         134.437         134.478         134.509         134.488         134.477         134.543    
          134.553         134.495         134.630         134.565         134.678         134.795         134.937         135.065         135.192         135.292    
          135.381         135.467         135.552         135.636         135.721         135.814         135.919         136.037         136.170         136.310    
          136.454         136.600         136.748         136.899         137.053         137.212         137.366         137.514         137.663         137.815    
          137.970         138.129         138.299         138.480         138.648         138.815         138.981         139.134         139.294         139.468    
          139.642         139.813         139.992         140.174         140.372         140.589         140.830         141.136         141.586         133.569    
          133.603         133.626         133.648         133.671         133.695         133.720         133.745         133.770         133.796         133.822    
          133.849         133.877         133.905         133.935         133.968         134.000         134.033         134.068         134.104         134.141    
          134.179         134.219         134.257         134.299         134.343         134.391         134.439         134.488         134.540         134.594    
          134.659         134.726         134.754         134.768         134.794         134.848         134.957         135.064         135.178         135.270    
          135.349         135.422         135.501         135.578         135.657         135.744         135.844         135.970         136.114         136.274    
          136.431         136.587         136.744         136.903         137.063         137.219         137.378         137.528         137.678         137.829    
          137.984         138.144         138.312         138.485         138.662         138.826         138.990         139.145         139.301         139.477    
          139.641         139.809         139.980         140.159         140.352         140.563         140.801         141.109         141.567         133.617    
          133.628         133.649         133.672         133.697         133.723         133.748         133.775         133.802         133.829         133.857    
          133.886         133.916         133.947         133.980         134.014         134.049         134.085         134.123         134.162         134.202    
          134.241         134.283         134.328         134.376         134.426         134.479         134.534         134.596         134.662         134.733    
          134.793         134.823         134.804         134.838         134.888         134.976         135.067         135.163         135.244         135.312    
          135.378         135.443         135.507         135.571         135.648         135.745         135.880         136.048         136.235         136.413    
          136.580         136.744         136.908         137.072         137.232         137.393         137.542         137.692         137.841         138.000    
          138.161         138.326         138.495         138.671         138.841         139.003         139.153         139.307         139.479         139.645    
          139.812         139.978         140.154         140.341         140.534         140.782         141.092         141.559         133.618         133.644    
          133.670         133.696         133.723         133.750         133.778         133.806         133.835         133.864         133.895         133.926    
          133.958         133.991         134.027         134.064         134.102         134.141         134.182         134.223         134.264         134.309    
          134.357         134.408         134.459         134.515         134.574         134.643         134.711         134.760         134.813         134.773    
          134.830         134.826         134.856         134.843         134.867         134.913         134.991         135.070         135.148         135.219    
          135.282         135.337         135.389         135.441         135.479         135.530         135.551         135.467         135.468         135.594    
          135.644         135.492         135.560         135.755         135.980         136.199         136.399         136.577         136.749         136.918    
          137.083         137.246         137.409         137.559         137.708         137.856         138.017         138.176         138.339         138.511    
          138.685         138.852         139.012         139.162         139.317         139.489         139.653         139.810         139.977         140.152    
          140.338         140.530         140.776         141.091         141.562         133.635         133.665         133.693         133.722         133.751    
          133.780         133.810         133.840         133.870         133.902         133.935         133.969         134.004         134.040         134.078    
          134.118         134.160         134.201         134.244         134.288         134.335         134.386         134.437         134.491         134.548    
          134.611         134.679         134.748         134.790         134.835         134.799         134.833         134.853         134.871         134.858    
          134.872         134.905         134.942         134.894         134.955         135.002         135.071         135.135         135.196         135.247    
          135.288         135.322         135.373         135.409         135.401         135.389         135.383         135.422         135.461         135.426    
          135.456         135.486         135.498         135.482         135.504         135.569         135.719         135.535         135.707         135.928    
          136.179         136.393         136.581         136.759         136.931         137.098         137.263         137.424         137.577         137.727    
          137.878         138.037         138.195         138.356         138.528         138.699         138.861         139.022         139.180         139.341    
          139.501         139.666         139.824         139.987         140.160         140.339         140.519         140.770         141.076         141.599    
          133.657         133.688         133.719         133.750         133.781         133.812         133.843         133.876         133.909         133.943    
          133.979         134.015         134.053         134.092         134.134         134.177         134.221         134.266         134.312         134.361    
          134.412         134.465         134.521         134.580         134.643         134.709         134.777         134.840         134.898         134.931    
          134.973         134.950         134.985         134.998         135.019         135.017         135.042         135.058         135.081         135.065    
          135.077         135.110         135.134         135.096         135.121         135.167         135.186         135.157         135.170         135.209    
          135.223         135.187         135.198         135.240         135.246         135.211         135.220         135.244         135.243         135.246    
          135.285         135.287         135.344         135.303         135.340         135.377         135.383         135.381         135.401         135.431    
          135.446         135.459         135.474         135.468         135.489         135.516         135.564         135.578         135.718         135.641    
          135.740         135.917         136.179         136.399         136.596         136.777         136.952         137.114         137.283         137.444    
          137.597         137.748         137.903         138.062         138.221         138.381         138.548         138.718         138.883         139.042    
          139.203         139.367         139.519         139.684         139.847         139.999         140.165         140.349         140.540         140.780    
          141.141         141.605         133.680         133.713         133.746         133.779         133.812         133.846         133.880         133.915    
          133.951         133.988         134.026         134.066         134.107         134.150         134.195         134.241         134.287         134.334    
          134.385         134.438         134.493         134.549         134.609         134.672         134.737         134.804         134.874         134.942    
          135.005         135.062         135.113         135.164         135.224         135.273         135.321         135.379         135.436         135.499    
          135.521         135.534         135.577         135.597         135.547         135.601         135.605         135.615         135.667         135.744    
          135.671         135.715         135.853         135.964         135.791         135.967         136.189         136.421         136.623         136.806    
          136.978         137.140         137.310         137.471         137.624         137.776         137.930         138.091         138.251         138.419    
          138.584         138.748         138.911         139.068         139.232         139.390         139.550         139.707         139.867         140.022    
          140.184         140.365         140.549         140.787         141.142         141.647         133.704         133.741         133.776         133.811    
          133.846         133.883         133.919         133.957         133.996         134.036         134.078         134.121         134.167         134.213    
          134.260         134.307         134.357         134.409         134.463         134.519         134.577         134.637         134.699         134.765    
          134.834         134.904         134.979         135.049         135.118         135.182         135.245         135.314         135.378         135.440    
          135.508         135.574         135.644         135.704         135.764         135.779         135.810         135.853         135.903         135.830    
          136.006         135.955         136.067         136.244         136.465         136.662         136.847         137.015         137.178         137.346    
          137.508         137.661         137.810         137.967         138.126         138.291         138.462         138.625         138.784         138.945    
          139.097         139.267         139.424         139.575         139.738         139.891         140.051         140.213         140.393         140.584    
          140.802         141.130         141.662         133.731         133.770         133.808         133.845         133.883         133.922         133.962    
          134.003         134.045         134.089         134.135         134.182         134.229         134.278         134.328         134.379         134.432    
          134.487         134.543         134.602         134.662         134.726         134.792         134.864         134.937         135.013         135.089    
          135.164         135.237         135.310         135.388         135.463         135.539         135.616         135.693         135.768         135.839    
          135.872         135.906         135.929         135.974         135.937         135.984         136.024         136.075         136.152         136.344    
          136.533         136.717         136.895         137.067         137.227         137.394         137.553         137.704         137.853         138.007    
          138.167         138.345         138.508         138.665         138.827         138.983         139.141         139.303         139.459         139.609    
          139.768         139.925         140.087         140.249         140.426         140.620         140.839         141.138         141.636         133.760    
          133.801         133.842         133.883         133.924         133.966         134.009         134.053         134.100         134.147         134.196    
          134.245         134.296         134.348         134.401         134.454         134.510         134.567         134.627         134.689         134.753    
          134.822         134.895         134.970         135.049         135.129         135.211         135.293         135.376         135.463         135.548    
          135.634         135.720         135.802         135.879         135.961         136.004         136.052         136.058         136.101         136.110    
          136.169         136.186         136.232         136.295         136.451         136.618         136.787         136.954         137.128         137.288    
          137.454         137.610         137.758         137.907         138.057         138.218         138.393         138.555         138.719         138.882    
          139.028         139.186         139.342         139.494         139.646         139.802         139.964         140.122         140.285         140.463    
          140.657         140.870         141.173         141.632         133.790         133.835         133.879         133.923         133.968         134.013    
          134.060         134.109         134.159         134.209         134.260         134.312         134.366         134.421         134.476         134.532    
          134.590         134.651         134.714         134.781         134.852         134.926         135.004         135.086         135.172         135.260    
          135.350         135.443         135.540         135.634         135.729         135.823         135.911         135.995         136.081         136.180    
          136.265         136.298         136.292         136.331         136.403         136.551         136.709         136.869         137.032         137.193    
          137.367         137.525         137.677         137.823         137.965         138.115         138.271         138.444         138.612         138.782    
          138.932         139.081         139.235         139.385         139.535         139.687         139.835         139.999         140.162         140.324    
          140.501         140.699         140.913         141.204         141.639         133.823         133.871         133.919         133.967         134.016    
          134.065         134.117         134.168         134.220         134.273         134.328         134.383         134.440         134.497         134.555    
          134.615         134.676         134.740         134.811         134.883         134.958         135.039         135.125         135.217         135.313    
          135.413         135.515         135.622         135.729         135.831         135.928         136.015         136.102         136.190         136.276    
          136.321         136.356         136.345         136.370         136.486         136.647         136.802         136.959         137.120         137.282    
          137.451         137.606         137.753         137.898         138.036         138.186         138.337         138.497         138.675         138.848    
          138.990         139.127         139.277         139.430         139.578         139.724         139.872         140.036         140.206         140.372    
          140.549         140.749         140.963         141.226         141.640         133.859         133.911         133.962         134.016         134.069    
          134.121         134.174         134.229         134.284         134.341         134.399         134.458         134.517         134.578         134.639    
          134.702         134.768         134.839         134.915         134.993         135.077         135.169         135.269         135.372         135.484    
          135.599         135.716         135.830         135.940         136.039         136.132         136.222         136.305         136.373         136.392    
          136.399         136.438         136.448         136.573         136.742         136.900         137.056         137.212         137.377         137.542    
          137.688         137.834         137.976         138.111         138.256         138.408         138.566         138.749         138.897         139.030    
          139.171         139.323         139.479         139.621         139.761         139.913         140.081         140.246         140.415         140.592    
          140.785         140.999         141.255         141.644         133.896         133.954         134.013         134.068         134.123         134.179    
          134.235         134.294         134.353         134.413         134.474         134.537         134.600         134.663         134.729         134.797    
          134.870         134.949         135.032         135.121         135.217         135.328         135.443         135.566         135.694         135.825    
          135.950         136.065         136.168         136.262         136.347         136.425         136.497         136.515         136.542         136.571    
          136.617         136.691         136.842         136.997         137.154         137.315         137.473         137.623         137.767         137.910    
          138.056         138.190         138.331         138.472         138.628         138.780         138.923         139.060         139.216         139.322    
          139.381         139.335         139.408         139.471         139.535         139.493         139.559         139.620         139.683         139.643    
          139.709         139.765         139.826         139.789         139.853         139.918         139.985         139.945         140.013         140.080    
          140.141         140.105         140.169         140.242         140.313         140.266         140.348         140.415         140.489         140.441    
          140.524         140.588         140.660         140.611         140.692         140.824         141.030         141.284         141.638         133.940    
          134.003         134.062         134.121         134.181         134.240         134.301         134.362         134.425         134.490         134.555    
          134.621         134.688         134.756         134.829         134.905         134.988         135.075         135.171         135.276         135.392    
          135.523         135.664         135.812         135.956         136.087         136.200         136.301         136.392         136.466         136.536    
          136.603         136.638         136.680         136.666         136.726         136.804         136.950         137.103         137.256         137.417    
          137.563         137.707         137.846         137.990         138.128         138.261         138.392         138.529         138.669         138.769    
          138.830         138.781         138.856         138.914         138.970         138.936         138.994         139.058         139.117         139.082    
          139.143         139.209         139.267         139.232         139.292         139.356         139.429         139.384         139.445         139.563    
          139.720         139.880         140.023         140.184         140.300         140.382         140.329         140.407         140.470         140.550    
          140.500         140.572         140.638         140.723         140.667         140.743         140.824         140.906         140.843         140.933    
          141.071         141.303         141.637         133.986         134.051         134.115         134.179         134.241         134.306         134.370    
          134.435         134.504         134.573         134.643         134.714         134.787         134.863         134.945         135.033         135.127    
          135.231         135.343         135.478         135.633         135.792         135.957         136.097         136.232         136.352         136.442    
          136.517         136.579         136.626         136.645         136.663         136.663         136.710         136.709         136.780         136.768    
          136.818         136.916         137.063         137.207         137.368         137.511         137.654         137.788         137.925         138.064    
          138.193         138.320         138.452         138.535         138.591         138.554         138.623         138.667         138.721         138.693    
          138.749         138.803         138.874         138.832         138.891         139.002         139.153         139.306         139.459         139.620    
          139.777         139.934         140.096         140.258         140.418         140.580         140.745         140.871         140.961         140.895    
          140.976         141.067         141.156         141.082         141.182         141.338         141.643         134.034         134.103         134.171    
          134.238         134.308         134.376         134.443         134.515         134.591         134.666         134.741         134.819         134.902    
          134.990         135.082         135.188         135.305         135.445         135.590         135.762         135.934         136.105         136.256    
          136.369         136.475         136.557         136.627         136.680         136.707         136.681         136.740         136.698         136.735    
          136.857         137.017         137.162         137.314         137.454         137.591         137.727         137.859         137.992         138.130    
          138.253         138.382         138.463         138.515         138.484         138.551         138.582         138.645         138.616         138.666    
          138.760         138.912         139.068         139.216         139.359         139.527         139.686         139.840         140.004         140.162    
          140.325         140.484         140.641         140.788         140.960         141.104         141.207         141.121         141.213         141.336    
          141.469         141.346         141.478         141.709         141.711         134.082         134.157         134.230         134.304         134.377    
          134.451         134.525         134.608         134.688         134.769         134.855         134.946         135.042         135.142         135.254    
          135.378         135.540         135.686         135.869         136.046         136.220         136.366         136.488         136.590         136.673    
          136.735         136.781         136.809         136.767         136.735         136.827         136.788         136.877         136.958         136.925    
          137.009         137.113         137.273         137.404         137.535         137.667         137.800         137.930         138.060         138.183    
          138.307         138.435         138.516         138.583         138.542         138.608         138.688         138.830         138.983         139.130    
          139.278         139.427         139.598         139.753         139.910         140.073         140.238         140.396         140.545         140.694    
          140.842         140.996         141.172         141.384         141.628         134.134         134.215         134.293         134.373         134.454    
          134.533         134.623         134.712         134.800         134.894         134.995         135.097         135.206         135.330         135.473    
          135.639         135.812         136.019         136.198         136.364         136.500         136.620         136.715         136.795         136.856    
          136.901         136.945         136.984         137.025         137.084         137.089         137.142         137.229         137.367         137.489    
          137.615         137.745         137.873         137.997         138.119         138.239         138.368         138.458         138.509         138.482    
          138.546         138.577         138.642         138.614         138.667         138.761         138.905         139.052         139.200         139.358    
          139.513         139.672         139.835         139.994         140.176         140.334         140.472         140.614         140.744         140.878    
          141.021         141.172         141.369         141.611         134.188         134.275         134.362         134.448         134.540         134.637    
          134.736         134.835         134.936         135.046         135.160         135.286         135.432         135.590         135.812         136.025    
          136.209         136.384         136.552         136.685         136.760         136.842         136.920         136.981         137.027         137.084    
          137.137         137.167         137.210         137.221         137.264         137.271         137.313         137.322         137.367         137.461    
          137.577         137.699         137.818         137.938         138.017         138.068         138.043         138.109         138.136         138.189    
          138.174         138.228         138.260         138.313         138.296         138.351         138.390         138.443         138.424         138.478    
          138.515         138.581         138.552         138.608         138.704         138.851         138.987         139.131         139.289         139.459    
          139.614         139.777         139.962         140.173         140.356         140.480         140.599         140.695         140.797         140.903    
          141.008         141.134         141.370         141.607         134.242         134.340         134.438         134.540         134.647         134.758    
          134.869         134.987         135.110         135.245         135.397         135.577         135.826         136.009         136.196         136.381    
          136.554         136.707         136.836         136.955         136.997         137.063         137.117         137.168         137.217         137.264    
          137.339         137.383         137.425         137.430         137.472         137.490         137.532         137.533         137.579         137.658    
          137.773         137.841         137.889         137.870         137.935         137.959         138.009         137.999         138.052         138.078    
          138.145         138.120         138.175         138.258         138.382         138.508         138.662         138.814         138.952         139.083    
          139.237         139.401         139.600         139.765         140.003         140.236         140.386         140.513         140.616         140.699    
          140.774         140.836         140.913         140.962         140.876         134.299         134.413         134.528         134.650         134.779    
          134.908         135.045         135.195         135.356         135.570         135.812         135.998         136.187         136.379         136.564    
          136.735         136.882         137.005         137.108         137.191         137.262         137.282         137.313         137.355         137.400    
          137.465         137.539         137.589         137.635         137.635         137.682         137.689         137.732         137.736         137.784    
          137.802         137.847         137.846         137.896         137.921         137.985         137.968         138.020         138.099         138.223    
          138.349         138.478         138.637         138.785         138.925         139.064         139.197         139.374         139.574         139.805    
          140.095         140.277         140.442         140.586         140.702         140.781         140.824         140.878         140.880         141.157    
          134.361         134.498         134.642         134.795         134.947         135.122         135.305         135.547         135.795         135.989    
          136.184         136.382         136.578         136.764         136.932         137.074         137.192         137.289         137.369         137.430    
          137.478         137.494         137.511         137.550         137.603         137.677         137.755         137.861         137.982         138.101    
          138.217         138.344         138.467         138.620         138.758         138.888         139.032         139.170         139.301         139.528    
          139.910         140.130         140.332         140.516         140.680         140.827         140.938         140.994         140.950         141.743    
          134.428         134.605         134.796         135.009         135.225         135.470         135.766         135.973         136.180         136.388    
          136.594         136.796         136.984         137.148         137.285         137.396         137.488         137.564         137.625         137.672    
          137.708         137.716         137.740         137.768         137.849         137.932         138.028         138.138         138.256         138.371    
          138.498         138.616         138.747         138.872         138.992         139.149         139.314         139.455         139.890         140.142    
          140.379         140.593         140.781         140.944         142.142         142.313         142.441         134.503         134.782         135.057    
          135.360         135.721         135.944         136.165         136.386         136.607         136.824         137.034         137.224         137.384    
          137.513         137.616         137.703         137.776         137.847         137.907         137.950         137.984         138.027         138.106    
          138.210         138.310         138.409         138.497         138.572         138.662         138.754         138.834         138.946         139.043    
          139.183         139.370         139.610         139.775         140.545         141.067         141.504         141.911         142.216         142.489    
          134.665         135.108         135.573         135.898         136.133         136.367         136.604         136.840         137.071         137.292    
          137.484         137.640         137.760         137.851         137.934         137.997         138.103         138.953         138.889         138.769    
          138.729         138.809         139.086         139.119         139.161         139.214         139.235         139.312         139.353         139.338    
          139.422         139.451         139.627         139.883         140.130         140.244         135.165         135.833         136.092         136.330    
          136.576         136.831         137.086         137.337         137.571         137.769         137.925         138.030         138.096         138.191    
          138.189         139.503         136.072         136.301         136.528         136.783         137.062         137.345         137.626         137.884    
          138.099         138.256         138.340         138.324         139.929         136.606         137.069         137.582         138.153         138.576    
          139.103         139.451         139.751         139.963         140.101    
1
  HEAD IN LAYER   2 AT END OF TIME STEP  48 IN STRESS PERIOD    2
  ---------------------------------------------------------------------------

                1               2               3               4               5               6               7               8               9              10
               11              12              13              14              15              16              17              18              19              20
               21              22              23              24              25              26              27              28              29              30
               31              32              33              34              35              36              37              38              39              40
               41              42              43              44              45              46              47              48              49              50
               51              52              53              54              55              56              57              58              59              60
               61              62              63              64              65              66              67              68              69              70
               71              72              73              74              75              76              77              78              79              80
               81              82              83              84              85              86              87              88              89              90
               91              92              93              94              95              96              97              98              99             100
              101             102             103             104             105             106             107             108             109             110
              111             112             113             114             115             116             117             118             119             120
              121             122             123             124             125             126             127             128             129             130
              131             132             133             134             135             136             137             138             139             140
              141             142             143             144             145             146             147             148             149             150
              151             152             153             154             155             156             157             158             159             160
              161             162             163             164             165             166             167             168             169             170
              171             172             173             174             175             176             177             178             179             180
              181             182             183             184             185             186             187             188             189             190
              191             192             193             194             195             196             197             198             199             200
              201             202             203             204             205             206             207             208             209             210
              211             212             213             214             215             216             217             218             219             220
              221             222             223             224             225             226             227             228             229             230
              231             232             233             234             235             236             237             238             239             240
              241             242             243             244             245             246             247             248             249             250
              251             252             253             254             255             256             257             258             259             260
              261             262             263             264             265             266             267             268             269             270
              271             272             273             274             275             276             277             278             279             280
              281             282             283             284             285             286             287             288             289             290
              291             292             293             294             295             296             297             298             299             300
              301             302             303             304             305             306             307             308             309             310
              311             312             313             314             315             316             317             318             319             320
              321             322             323             324             325             326             327             328             329             330
              331             332             333             334             335             336             337             338             339             340
              341             342             343             344             345             346             347             348             349             350
              351             352             353             354             355             356             357             358             359             360
              361             362             363             364             365             366             367             368             369             370
              371             372             373             374             375             376             377             378             379             380
              381             382             383             384             385             386             387             388             389             390
              391             392             393             394             395             396             397             398             399             400
              401             402             403             404             405             406             407             408             409             410
              411             412             413             414             415             416             417             418             419             420
              421             422             423             424             425             426             427             428             429             430
              431             432             433             434             435             436             437             438             439             440
              441             442             443             444             445             446             447             448             449             450
              451             452             453             454             455             456             457             458             459             460
              461             462             463             464             465             466             467             468             469             470
              471             472             473             474             475             476             477             478             479             480
              481             482             483             484             485             486             487             488             489             490
              491             492             493             494             495             496             497             498             499             500
              501             502             503             504             505             506             507             508             509             510
              511             512             513             514             515             516             517             518             519             520
              521             522             523             524             525             526             527             528             529             530
              531             532             533             534             535             536             537             538             539             540
              541             542             543             544             545             546             547             548             549             550
              551             552             553             554             555             556             557             558             559             560
              561             562             563             564             565             566             567             568             569             570
              571             572             573             574             575             576             577             578             579             580
              581             582             583             584             585             586             587             588             589             590
              591             592             593             594             595             596             597             598             599             600
              601             602             603             604             605             606             607             608             609             610
              611             612             613             614             615             616             617             618             619             620
              621             622             623             624             625             626             627             628             629             630
              631             632             633             634             635             636             637             638             639             640
              641             642             643             644             645             646             647             648             649             650
              651             652             653             654             655             656             657             658             659             660
              661             662             663             664             665             666             667             668             669             670
              671             672             673             674             675             676             677             678             679             680
              681             682             683             684             685             686             687             688             689             690
              691             692             693             694             695             696             697             698             699             700
              701             702             703             704             705             706             707             708             709             710
              711             712             713             714             715             716             717             718             719             720
              721             722             723             724             725             726             727             728             729             730
              731             732             733             734             735             736             737             738             739             740
              741             742             743             744             745             746             747             748             749             750
              751             752             753             754             755             756             757             758             759             760
              761             762             763             764             765             766             767             768             769             770
              771             772             773             774             775             776             777             778             779             780
              781             782             783             784             785             786             787             788             789             790
              791             792             793             794             795             796             797             798             799             800
              801             802             803             804             805             806             807             808             809             810
              811             812             813             814             815             816             817             818             819             820
              821             822             823             824             825             826             827             828             829             830
              831             832             833             834             835             836             837             838             839             840
              841             842             843             844             845             846             847             848             849             850
              851             852             853             854             855             856             857             858             859             860
              861             862             863             864             865             866             867             868             869             870
              871             872             873             874             875             876             877             878             879             880
              881             882             883             884             885             886             887             888             889             890
              891             892             893             894             895             896             897             898             899             900
              901             902             903             904             905             906             907             908             909             910
              911             912             913             914             915             916             917             918             919             920
              921             922             923             924             925             926             927             928             929             930
              931             932             933             934             935             936             937             938             939             940
              941             942             943             944             945             946             947             948             949             950
              951             952             953             954             955             956             957             958             959             960
              961             962             963             964             965             966             967             968             969             970
              971             972             973             974             975             976             977             978             979             980
              981             982             983             984             985             986             987             988             989             990
              991             992             993             994             995             996             997             998             999            1000
             1001            1002            1003            1004            1005            1006            1007            1008            1009            1010
             1011            1012            1013            1014            1015            1016            1017            1018            1019            1020
             1021            1022            1023            1024            1025            1026            1027            1028            1029            1030
             1031            1032            1033            1034            1035            1036            1037            1038            1039            1040
             1041            1042            1043            1044            1045            1046            1047            1048            1049            1050
             1051            1052            1053            1054            1055            1056            1057            1058            1059            1060
             1061            1062            1063            1064            1065            1066            1067            1068            1069            1070
             1071            1072            1073            1074            1075            1076            1077            1078            1079            1080
             1081            1082            1083            1084            1085            1086            1087            1088            1089            1090
             1091            1092            1093            1094            1095            1096            1097            1098            1099            1100
             1101            1102            1103            1104            1105            1106            1107            1108            1109            1110
             1111            1112            1113            1114            1115            1116            1117            1118            1119            1120
             1121            1122            1123            1124            1125            1126            1127            1128            1129            1130
             1131            1132            1133            1134            1135            1136            1137            1138            1139            1140
             1141            1142            1143            1144            1145            1146            1147            1148            1149            1150
             1151            1152            1153            1154            1155            1156            1157            1158            1159            1160
             1161            1162            1163            1164            1165            1166            1167            1168            1169            1170
             1171            1172            1173            1174            1175            1176            1177            1178            1179            1180
             1181            1182            1183            1184            1185            1186            1187            1188            1189            1190
             1191            1192            1193            1194            1195            1196            1197            1198            1199            1200
             1201            1202            1203            1204            1205            1206            1207            1208            1209            1210
             1211            1212            1213            1214            1215            1216            1217            1218            1219            1220
             1221            1222            1223            1224            1225            1226            1227            1228            1229            1230
             1231            1232            1233            1234            1235            1236            1237            1238            1239            1240
             1241            1242            1243            1244            1245            1246            1247            1248            1249            1250
             1251            1252            1253            1254            1255            1256            1257            1258            1259            1260
             1261            1262            1263            1264            1265            1266            1267            1268            1269            1270
             1271            1272            1273            1274            1275            1276            1277            1278            1279            1280
             1281            1282            1283            1284            1285            1286            1287            1288            1289            1290
             1291            1292            1293            1294            1295            1296            1297            1298            1299            1300
             1301            1302            1303            1304            1305            1306            1307            1308            1309            1310
             1311            1312            1313            1314            1315            1316            1317            1318            1319            1320
             1321            1322            1323            1324            1325            1326            1327            1328            1329            1330
             1331            1332            1333            1334            1335            1336            1337            1338            1339            1340
             1341            1342            1343            1344            1345            1346            1347            1348            1349            1350
             1351            1352            1353            1354            1355            1356            1357            1358            1359            1360
             1361            1362            1363            1364            1365            1366            1367            1368            1369            1370
             1371            1372            1373            1374            1375            1376            1377            1378            1379            1380
             1381            1382            1383            1384            1385            1386            1387            1388            1389            1390
             1391            1392            1393            1394            1395            1396            1397            1398            1399            1400
             1401            1402            1403            1404            1405            1406            1407            1408            1409            1410
             1411            1412            1413            1414            1415            1416            1417            1418            1419            1420
             1421            1422            1423            1424            1425            1426            1427            1428            1429            1430
             1431            1432            1433            1434            1435            1436            1437            1438            1439            1440
             1441            1442            1443            1444            1445            1446            1447            1448            1449            1450
             1451            1452            1453            1454            1455            1456            1457            1458            1459            1460
             1461            1462            1463            1464            1465            1466            1467            1468            1469            1470
             1471            1472            1473            1474            1475            1476            1477            1478            1479            1480
             1481            1482            1483            1484            1485            1486            1487            1488            1489            1490
             1491            1492            1493            1494            1495            1496            1497            1498            1499            1500
             1501            1502            1503            1504            1505            1506            1507            1508            1509            1510
             1511            1512            1513            1514            1515            1516            1517            1518            1519            1520
             1521            1522            1523            1524            1525            1526            1527            1528            1529            1530
             1531            1532            1533            1534            1535            1536            1537            1538            1539            1540
             1541            1542            1543            1544            1545            1546            1547            1548            1549            1550
             1551            1552            1553            1554            1555            1556            1557            1558            1559            1560
             1561            1562            1563            1564            1565            1566            1567            1568            1569            1570
             1571            1572            1573            1574            1575            1576            1577            1578            1579            1580
             1581            1582            1583            1584            1585            1586            1587            1588            1589            1590
             1591            1592            1593            1594            1595            1596            1597            1598            1599            1600
             1601            1602            1603            1604            1605            1606            1607            1608            1609            1610
             1611            1612            1613            1614            1615            1616            1617            1618            1619            1620
             1621            1622            1623            1624            1625            1626            1627            1628            1629            1630
             1631            1632            1633            1634            1635            1636            1637            1638            1639            1640
             1641            1642            1643            1644            1645            1646            1647            1648            1649            1650
             1651            1652            1653            1654            1655            1656            1657            1658            1659            1660
             1661            1662            1663            1664            1665            1666            1667            1668            1669            1670
             1671            1672            1673            1674            1675            1676            1677            1678            1679            1680
             1681            1682            1683            1684            1685            1686            1687            1688            1689            1690
             1691            1692            1693            1694            1695            1696            1697            1698            1699            1700
             1701            1702            1703            1704            1705            1706            1707            1708            1709            1710
             1711            1712            1713            1714            1715            1716            1717            1718            1719            1720
             1721            1722            1723            1724            1725            1726            1727            1728            1729            1730
             1731            1732            1733            1734            1735            1736            1737            1738            1739            1740
             1741            1742            1743            1744            1745            1746            1747            1748            1749            1750
             1751            1752            1753            1754            1755            1756            1757            1758            1759            1760
             1761            1762            1763            1764            1765            1766            1767            1768            1769            1770
             1771            1772            1773            1774            1775            1776            1777            1778            1779            1780
             1781            1782            1783            1784            1785            1786            1787            1788            1789            1790
             1791            1792            1793            1794            1795            1796            1797            1798            1799            1800
             1801            1802            1803            1804            1805            1806            1807            1808            1809            1810
             1811            1812            1813            1814            1815            1816            1817            1818            1819            1820
             1821            1822            1823            1824            1825            1826            1827            1828            1829            1830
             1831            1832            1833            1834            1835            1836            1837            1838            1839            1840
             1841            1842            1843            1844            1845            1846            1847            1848            1849            1850
             1851            1852            1853            1854            1855            1856            1857            1858            1859            1860
             1861            1862            1863            1864            1865            1866            1867            1868            1869            1870
             1871            1872            1873            1874            1875            1876            1877            1878            1879            1880
             1881            1882            1883            1884            1885            1886            1887            1888            1889            1890
             1891            1892            1893            1894            1895            1896            1897            1898            1899            1900
             1901            1902            1903            1904            1905            1906            1907            1908            1909            1910
             1911            1912            1913            1914            1915            1916            1917            1918            1919            1920
             1921            1922            1923            1924            1925            1926            1927            1928            1929            1930
             1931            1932            1933            1934            1935            1936            1937            1938            1939            1940
             1941            1942            1943            1944            1945            1946            1947            1948            1949            1950
             1951            1952            1953            1954            1955            1956            1957            1958            1959            1960
             1961            1962            1963            1964            1965            1966            1967            1968            1969            1970
             1971            1972            1973            1974            1975            1976            1977            1978            1979            1980
             1981            1982            1983            1984            1985            1986            1987            1988            1989            1990
             1991            1992            1993            1994            1995            1996            1997            1998            1999            2000
             2001            2002            2003            2004            2005            2006            2007            2008            2009            2010
             2011            2012            2013            2014            2015            2016            2017            2018            2019            2020
             2021            2022            2023            2024            2025            2026            2027            2028            2029            2030
             2031            2032            2033            2034            2035            2036            2037            2038            2039            2040
             2041            2042            2043            2044            2045            2046            2047            2048            2049            2050
             2051            2052            2053            2054            2055            2056            2057            2058            2059            2060
             2061            2062            2063            2064            2065            2066            2067            2068            2069            2070
             2071            2072            2073            2074            2075            2076            2077            2078            2079            2080
             2081            2082            2083            2084            2085            2086            2087            2088            2089            2090
             2091            2092            2093            2094            2095            2096            2097            2098            2099            2100
             2101            2102            2103            2104            2105            2106            2107            2108            2109            2110
             2111            2112            2113            2114            2115            2116            2117            2118            2119            2120
             2121            2122            2123            2124            2125            2126            2127            2128            2129            2130
             2131            2132            2133            2134            2135            2136            2137            2138            2139            2140
             2141            2142            2143            2144            2145            2146            2147            2148            2149            2150
             2151            2152            2153            2154            2155            2156            2157            2158            2159            2160
             2161            2162            2163            2164            2165            2166            2167            2168            2169            2170
             2171            2172            2173            2174            2175            2176            2177            2178            2179            2180
             2181            2182            2183            2184            2185            2186            2187            2188            2189            2190
             2191            2192            2193            2194            2195            2196            2197            2198            2199            2200
             2201            2202            2203            2204            2205            2206            2207            2208            2209            2210
             2211            2212            2213            2214            2215            2216            2217            2218            2219            2220
             2221            2222            2223            2224            2225            2226            2227            2228            2229            2230
             2231            2232            2233            2234            2235            2236            2237            2238            2239            2240
             2241            2242            2243            2244            2245            2246            2247            2248            2249            2250
             2251            2252            2253            2254            2255            2256            2257            2258            2259            2260
             2261            2262            2263            2264            2265            2266            2267            2268            2269            2270
             2271            2272            2273            2274            2275            2276            2277            2278            2279            2280
             2281            2282            2283            2284            2285            2286            2287            2288            2289            2290
             2291            2292            2293            2294            2295            2296            2297            2298            2299            2300
             2301            2302            2303            2304            2305            2306            2307            2308            2309            2310
             2311            2312            2313            2314            2315            2316            2317            2318            2319            2320
             2321            2322            2323            2324            2325            2326            2327            2328            2329            2330
             2331            2332            2333            2334            2335            2336            2337            2338            2339            2340
             2341            2342            2343            2344            2345            2346            2347            2348            2349            2350
             2351            2352            2353            2354            2355            2356            2357            2358            2359            2360
             2361            2362            2363            2364            2365            2366            2367            2368            2369            2370
             2371            2372            2373            2374            2375            2376            2377            2378            2379            2380
             2381            2382            2383            2384            2385            2386            2387            2388            2389            2390
             2391            2392            2393            2394            2395            2396            2397            2398            2399            2400
             2401            2402            2403            2404            2405            2406            2407            2408            2409            2410
             2411            2412            2413            2414            2415            2416            2417            2418            2419            2420
             2421            2422            2423            2424            2425            2426            2427            2428            2429            2430
             2431            2432            2433            2434            2435            2436            2437            2438            2439            2440
             2441            2442            2443            2444            2445            2446            2447            2448            2449            2450
             2451            2452            2453            2454            2455            2456            2457            2458            2459            2460
             2461            2462            2463            2464            2465            2466            2467            2468            2469            2470
             2471            2472            2473            2474            2475            2476            2477            2478            2479            2480
             2481            2482            2483            2484            2485            2486            2487            2488            2489            2490
             2491            2492            2493            2494            2495            2496            2497            2498            2499            2500
             2501            2502            2503            2504            2505            2506            2507            2508            2509            2510
             2511            2512            2513            2514            2515            2516            2517            2518            2519            2520
             2521            2522            2523            2524            2525            2526            2527            2528            2529            2530
             2531            2532            2533            2534            2535            2536            2537            2538            2539            2540
             2541            2542            2543            2544            2545            2546            2547            2548            2549            2550
             2551            2552            2553            2554            2555            2556            2557            2558            2559            2560
             2561            2562            2563            2564            2565            2566            2567            2568            2569            2570
             2571            2572            2573            2574            2575            2576            2577            2578            2579            2580
             2581            2582            2583            2584            2585            2586            2587            2588            2589            2590
             2591            2592            2593            2594            2595            2596            2597            2598            2599            2600
             2601            2602            2603            2604            2605            2606            2607            2608            2609            2610
             2611            2612            2613            2614            2615            2616            2617            2618            2619            2620
             2621            2622            2623            2624            2625            2626            2627            2628            2629            2630
             2631            2632            2633            2634            2635            2636            2637            2638            2639            2640
             2641            2642            2643            2644            2645            2646            2647            2648            2649            2650
             2651            2652            2653            2654            2655            2656            2657            2658            2659            2660
             2661            2662            2663            2664            2665            2666            2667            2668            2669            2670
             2671            2672            2673            2674            2675            2676            2677            2678            2679            2680
             2681            2682            2683            2684            2685            2686            2687            2688            2689            2690
             2691            2692            2693            2694            2695            2696            2697            2698            2699            2700
             2701            2702            2703            2704            2705            2706            2707            2708            2709            2710
             2711            2712            2713            2714            2715            2716            2717            2718            2719            2720
             2721            2722            2723            2724            2725            2726            2727            2728            2729            2730
             2731            2732            2733            2734            2735            2736            2737            2738            2739            2740
             2741            2742            2743            2744            2745            2746            2747            2748            2749            2750
             2751            2752            2753            2754            2755            2756            2757            2758            2759            2760
             2761            2762            2763            2764            2765            2766            2767            2768            2769            2770
             2771            2772            2773            2774            2775            2776            2777            2778            2779            2780
             2781            2782            2783            2784            2785            2786            2787            2788            2789            2790
             2791            2792            2793            2794            2795            2796            2797            2798            2799            2800
             2801            2802            2803            2804            2805            2806            2807            2808            2809            2810
             2811            2812            2813            2814            2815            2816            2817            2818            2819            2820
             2821            2822            2823            2824            2825            2826            2827            2828            2829            2830
             2831            2832            2833            2834            2835            2836            2837            2838            2839            2840
             2841            2842            2843            2844            2845            2846            2847            2848            2849            2850
             2851            2852            2853            2854            2855            2856            2857            2858            2859            2860
             2861            2862            2863            2864            2865            2866            2867            2868            2869            2870
             2871            2872            2873            2874            2875            2876            2877            2878            2879            2880
             2881            2882            2883            2884            2885            2886            2887            2888            2889            2890
             2891            2892            2893            2894            2895            2896            2897            2898            2899            2900
             2901            2902            2903            2904            2905            2906            2907            2908            2909            2910
             2911            2912            2913            2914            2915            2916            2917            2918            2919            2920
             2921            2922            2923            2924            2925            2926            2927            2928            2929            2930
             2931            2932            2933            2934            2935            2936            2937            2938            2939            2940
             2941            2942            2943            2944            2945            2946            2947            2948            2949            2950
             2951            2952            2953            2954            2955            2956            2957            2958            2959            2960
             2961            2962            2963            2964            2965            2966            2967            2968            2969            2970
             2971            2972            2973            2974            2975            2976            2977            2978            2979            2980
             2981            2982            2983            2984            2985            2986            2987            2988            2989            2990
             2991            2992            2993            2994            2995            2996            2997            2998            2999            3000
             3001            3002            3003            3004            3005            3006            3007            3008            3009            3010
             3011            3012            3013            3014            3015            3016            3017            3018            3019            3020
             3021            3022            3023            3024            3025            3026            3027            3028            3029            3030
             3031            3032            3033            3034            3035            3036            3037            3038            3039            3040
             3041            3042            3043            3044            3045            3046            3047            3048            3049            3050
             3051            3052            3053            3054            3055            3056            3057            3058            3059            3060
             3061            3062            3063            3064            3065            3066            3067            3068            3069            3070
             3071            3072            3073            3074            3075            3076            3077            3078            3079            3080
             3081            3082            3083            3084            3085            3086            3087            3088            3089            3090
             3091            3092            3093            3094            3095            3096            3097            3098            3099            3100
             3101            3102            3103            3104            3105            3106            3107            3108            3109            3110
             3111            3112            3113            3114            3115            3116            3117            3118            3119            3120
             3121            3122            3123            3124            3125            3126            3127            3128            3129            3130
             3131            3132            3133            3134            3135
 ................................................................................................................................................................
   1      133.708         133.699         133.676         133.641         133.619         133.611         133.612         133.603         133.610         133.647    
          133.700         133.760         133.823         133.887         133.951         134.013         134.075         134.135         134.193         134.250    
          134.303         134.350         134.384         133.685         133.691         133.683         133.663         133.631         133.606         133.594    
          133.604         133.593         133.588         133.593         133.584         133.586         133.614         133.665         133.724         133.788    
          133.854         133.920         133.987         134.052         134.116         134.178         134.239         134.297         134.353         134.406    
          134.459         133.670         133.676         133.677         133.670         133.654         133.629         133.602         133.586         133.584    
          133.590         133.587         133.591         133.602         133.587         133.594         133.625         133.644         133.610         133.631    
          133.679         133.742         133.810         133.881         133.952         134.022         134.090         134.157         134.223         134.287    
          134.351         134.414         134.476         134.528         133.660         133.665         133.668         133.669         133.663         133.651    
          133.634         133.614         133.599         133.592         133.600         133.616         133.597         133.606         133.638         133.658    
          133.623         133.645         133.696         133.765         133.839         133.916         133.991         134.064         134.135         134.205    
          134.274         134.343         134.413         134.482         134.546         134.600         133.651         133.656         133.661         133.664    
          133.665         133.662         133.654         133.642         133.629         133.617         133.608         133.604         133.614         133.631    
          133.612         133.622         133.656         133.679         133.642         133.668         133.723         133.801         133.883         133.963    
          134.039         134.113         134.185         134.258         134.332         134.407         134.483         134.556         134.625         134.684    
          133.641         133.647         133.653         133.659         133.663         133.665         133.664         133.661         133.654         133.646    
          133.638         133.631         133.625         133.625         133.636         133.656         133.639         133.652         133.686         133.713    
          133.675         133.706         133.769         133.857         133.940         134.017         134.091         134.165         134.239         134.317    
          134.397         134.479         134.562         134.642         134.718         134.787         133.628         133.636         133.644         133.651    
          133.658         133.664         133.668         133.670         133.670         133.668         133.664         133.661         133.657         133.655    
          133.654         133.661         133.677         133.702         133.686         133.705         133.741         133.776         133.739         133.779    
          133.845         133.927         134.000         134.071         134.142         134.218         134.298         134.383         134.471         134.562    
          134.654         134.745         134.834         134.919         133.613         133.622         133.632         133.641         133.650         133.659    
          133.666         133.672         133.677         133.680         133.682         133.684         133.684         133.686         133.688         133.693    
          133.703         133.725         133.753         133.789         133.772         133.803         133.835         133.868         133.845         133.878    
          133.926         133.988         134.051         134.118         134.192         134.274         134.364         134.459         134.558         134.660    
          134.765         134.874         134.987         135.102         133.595         133.606         133.617         133.629         133.640         133.651    
          133.661         133.670         133.679         133.686         133.692         133.698         133.703         133.709         133.715         133.722    
          133.733         133.749         133.776         133.820         133.859         133.888         133.870         133.895         133.920         133.942    
          133.924         133.945         133.972         133.993         133.971         133.991         134.024         134.048         134.017         134.044    
          134.092         134.162         134.246         134.341         134.443         134.549         134.659         134.776         134.901         135.039    
          135.199         135.411         135.591         135.744         135.879         136.001         136.114         136.218         136.316         136.410    
          136.503         136.594         136.683         136.772         136.862         136.952         137.043         137.136         137.229         137.324    
          137.421         137.521         137.624         137.734         137.855         137.980         138.098         138.212         138.332         138.465    
          138.606         138.751         138.912         139.081         139.265         139.474         139.670         133.593         133.602         133.614    
          133.627         133.640         133.652         133.664         133.675         133.686         133.696         133.705         133.714         133.723    
          133.732         133.743         133.755         133.770         133.791         133.818         133.856         133.899         133.943         133.984    
          134.015         134.037         134.016         134.034         134.064         134.087         134.058         134.078         134.122         134.152    
          134.108         134.143         134.213         134.314         134.421         134.533         134.650         134.775         134.909         135.056    
          135.218         135.394         135.560         135.709         135.842         135.964         136.076         136.181         136.281         136.376    
          136.469         136.560         136.651         136.741         136.832         136.924         137.018         137.114         137.211         137.312    
          137.415         137.521         137.631         137.748         137.870         137.995         138.117         138.239         138.366         138.503    
          138.651         138.812         138.978         139.158         139.372         139.639         139.952         140.331         133.592         133.601    
          133.613         133.627         133.641         133.655         133.668         133.681         133.694         133.706         133.718         133.730    
          133.742         133.754         133.768         133.784         133.803         133.826         133.853         133.886         133.923         133.960    
          133.996         134.031         134.068         134.103         134.132         134.103         134.130         134.187         134.287         134.397    
          134.512         134.633         134.762         134.900         135.048         135.204         135.362         135.518         135.660         135.791    
          135.911         136.023         136.129         136.230         136.326         136.420         136.513         136.606         136.698         136.792    
          136.887         136.985         137.086         137.189         137.296         137.407         137.520         137.637         137.759         137.884    
          138.011         138.138         138.267         138.401         138.544         138.700         138.870         139.044         139.235         139.467    
          139.759         140.078         140.412         140.739         133.592         133.601         133.613         133.628         133.643         133.658    
          133.673         133.688         133.702         133.716         133.730         133.745         133.760         133.775         133.792         133.811    
          133.832         133.855         133.883         133.913         133.946         133.980         134.014         134.047         134.082         134.109    
          134.132         134.117         134.137         134.164         134.194         134.165         134.198         134.264         134.372         134.487    
          134.609         134.739         134.877         135.024         135.175         135.324         135.471         135.608         135.735         135.854    
          135.965         136.071         136.173         136.271         136.366         136.461         136.557         136.652         136.749         136.848    
          136.951         137.057         137.166         137.279         137.399         137.519         137.642         137.767         137.896         138.026    
          138.158         138.293         138.432         138.582         138.746         138.919         139.099         139.295         139.532         139.822    
          140.116         140.431         140.762         141.024         133.593         133.601         133.615         133.630         133.646         133.662    
          133.678         133.694         133.711         133.727         133.743         133.760         133.777         133.795         133.814         133.834    
          133.857         133.882         133.909         133.939         133.970         134.002         134.034         134.067         134.102         134.141    
          134.174         134.202         134.181         134.205         134.240         134.274         134.238         134.274         134.347         134.458    
          134.579         134.708         134.845         134.991         135.139         135.283         135.424         135.557         135.681         135.798    
          135.908         136.013         136.115         136.215         136.312         136.410         136.507         136.606         136.707         136.811    
          136.918         137.030         137.145         137.264         137.390         137.517         137.645         137.774         137.905         138.038    
          138.175         138.318         138.462         138.618         138.784         138.960         139.142         139.337         139.572         139.844    
          140.123         140.417         140.718         140.995         141.204         133.594         133.603         133.617         133.633         133.650    
          133.667         133.684         133.702         133.719         133.737         133.755         133.774         133.793         133.813         133.834    
          133.856         133.880         133.905         133.933         133.962         133.993         134.025         134.057         134.090         134.124    
          134.161         134.205         134.242         134.274         134.247         134.273         134.315         134.351         134.308         134.347    
          134.425         134.542         134.669         134.806         134.953         135.100         135.241         135.379         135.508         135.629    
          135.744         135.852         135.957         136.060         136.160         136.260         136.359         136.460         136.563         136.668    
          136.776         136.889         137.005         137.126         137.251         137.383         137.516         137.647         137.779         137.913    
          138.049         138.192         138.340         138.489         138.648         138.815         138.990         139.174         139.369         139.600    
          139.854         140.110         140.378         140.654         140.925         141.160         141.338         133.596         133.605         133.619    
          133.636         133.654         133.672         133.691         133.709         133.728         133.747         133.767         133.787         133.808    
          133.830         133.852         133.876         133.901         133.927         133.955         133.985         134.016         134.047         134.080    
          134.113         134.147         134.184         134.223         134.268         134.307         134.340         134.309         134.335         134.383    
          134.421         134.370         134.413         134.500         134.626         134.764         134.914         135.061         135.201         135.336    
          135.462         135.581         135.693         135.800         135.904         136.007         136.108         136.209         136.311         136.415    
          136.522         136.632         136.745         136.863         136.985         137.110         137.241         137.377         137.515         137.649    
          137.784         137.920         138.059         138.207         138.360         138.515         138.675         138.839         139.010         139.196    
          139.401         139.627         139.857         140.091         140.335         140.587         140.840         141.080         141.290         141.437    
          133.598         133.608         133.622         133.640         133.658         133.677         133.697         133.717         133.737         133.757    
          133.779         133.800         133.822         133.845         133.869         133.894         133.920         133.947         133.976         134.006    
          134.038         134.070         134.103         134.137         134.171         134.207         134.245         134.284         134.327         134.366    
          134.402         134.367         134.395         134.452         134.495         134.437         134.487         134.584         134.724         134.874    
          135.024         135.164         135.296         135.420         135.537         135.647         135.752         135.854         135.956         136.058    
          136.160         136.265         136.373         136.484         136.599         136.718         136.841         136.968         137.098         137.234    
          137.374         137.514         137.652         137.788         137.927         138.070         138.222         138.378         138.537         138.699    
          138.862         139.029         139.215         139.429         139.648         139.854         140.069         140.295         140.528         140.766    
          141.001         141.221         141.390         133.601         133.611         133.626         133.644         133.663         133.683         133.703    
          133.724         133.745         133.767         133.789         133.812         133.836         133.860         133.885         133.911         133.938    
          133.967         133.996         134.027         134.060         134.093         134.127         134.162         134.197         134.233         134.270    
          134.308         134.347         134.388         134.432         134.475         134.436         134.470         134.535         134.588         134.523    
          134.584         134.693         134.842         134.991         135.132         135.261         135.381         135.495         135.603         135.706    
          135.806         135.907         136.009         136.113         136.221         136.333         136.449         136.570         136.695         136.823    
          136.955         137.090         137.229         137.372         137.515         137.655         137.794         137.936         138.083         138.237    
          138.396         138.557         138.720         138.884         139.048         139.238         139.450         139.656         139.848         140.049    
          140.259         140.479         140.705         140.934         141.156         141.334         133.604         133.614         133.630         133.648    
          133.667         133.688         133.709         133.731         133.753         133.776         133.800         133.823         133.848         133.873    
          133.900         133.927         133.955         133.985         134.016         134.048         134.081         134.116         134.151         134.187    
          134.224         134.262         134.300         134.339         134.377         134.417         134.466         134.523         134.579         134.527    
          134.580         134.677         134.821         134.967         135.105         135.231         135.347         135.457         135.561         135.662    
          135.760         135.859         135.961         136.067         136.178         136.294         136.416         136.543         136.674         136.808    
          136.946         137.086         137.229         137.374         137.518         137.660         137.802         137.947         138.096         138.252    
          138.413         138.577         138.740         138.904         139.074         139.263         139.464         139.657         139.841         140.031    
          140.230         140.438         140.654         140.876         141.096         141.274         133.607         133.618         133.633         133.652    
          133.672         133.693         133.715         133.738         133.761         133.784         133.809         133.834         133.860         133.886    
          133.914         133.942         133.972         134.003         134.035         134.069         134.103         134.139         134.176         134.214    
          134.252         134.292         134.333         134.375         134.417         134.460         134.505         134.542         134.586         134.559    
          134.599         134.679         134.816         134.953         135.085         135.206         135.317         135.421         135.520         135.618    
          135.714         135.811         135.911         136.018         136.134         136.256         136.385         136.518         136.656         136.797    
          136.941         137.087         137.233         137.379         137.524         137.668         137.813         137.959         138.110         138.268    
          138.430         138.596         138.762         138.929         139.102         139.286         139.474         139.656         139.834         140.016    
          140.206         140.404         140.611         140.827         141.042         141.215         133.611         133.622         133.638         133.656    
          133.676         133.698         133.720         133.743         133.767         133.792         133.818         133.844         133.870         133.898    
          133.927         133.956         133.987         134.020         134.053         134.088         134.124         134.162         134.200         134.240    
          134.281         134.324         134.368         134.414         134.460         134.508         134.559         134.590         134.624         134.617    
          134.649         134.675         134.725         134.696         134.747         134.829         134.953         135.072         135.186         135.290    
          135.388         135.481         135.573         135.665         135.759         135.858         135.967         136.086         136.216         136.353    
          136.496         136.641         136.789         136.939         137.090         137.240         137.389         137.534         137.678         137.824    
          137.973         138.126         138.285         138.449         138.615         138.782         138.951         139.126         139.308         139.485    
          139.657         139.830         140.005         140.186         140.376         140.577         140.785         140.994         141.164         133.614    
          133.627         133.643         133.660         133.680         133.702         133.725         133.749         133.774         133.799         133.825    
          133.853         133.880         133.909         133.939         133.970         134.002         134.036         134.071         134.108         134.146    
          134.184         134.225         134.266         134.310         134.356         134.404         134.453         134.504         134.557         134.614    
          134.678         134.729         134.774         134.750         134.794         134.858         134.963         135.068         135.171         135.267    
          135.357         135.442         135.527         135.613         135.703         135.800         135.909         136.034         136.173         136.322    
          136.475         136.630         136.785         136.941         137.097         137.252         137.402         137.547         137.692         137.838    
          137.989         138.143         138.303         138.468         138.635         138.802         138.974         139.149         139.325         139.496    
          139.661         139.829         139.998         140.173         140.356         140.549         140.752         140.957         141.126         133.636    
          133.648         133.665         133.684         133.706         133.729         133.753         133.779         133.805         133.832         133.860    
          133.889         133.919         133.950         133.983         134.017         134.052         134.089         134.127         134.166         134.207    
          134.249         134.292         134.339         134.387         134.438         134.490         134.544         134.602         134.662         134.728    
          134.776         134.816         134.792         134.831         134.886         134.976         135.068         135.160         135.246         135.327    
          135.405         135.481         135.559         135.642         135.736         135.846         135.977         136.129         136.292         136.458    
          136.623         136.786         136.947         137.108         137.265         137.416         137.562         137.707         137.855         138.006    
          138.162         138.323         138.488         138.655         138.822         138.994         139.169         139.340         139.506         139.669    
          139.831         139.996         140.165         140.343         140.531         140.731         140.932         141.098         133.655         133.670    
          133.689         133.709         133.732         133.757         133.783         133.810         133.838         133.868         133.898         133.929    
          133.962         133.995         134.031         134.068         134.106         134.146         134.187         134.229         134.273         134.319    
          134.367         134.417         134.470         134.524         134.581         134.641         134.703         134.747         134.775         134.760    
          134.794         134.810         134.847         134.827         134.860         134.909         134.989         135.070         135.152         135.228    
          135.301         135.371         135.440         135.512         135.587         135.667         135.710         135.642         135.686         135.770    
          135.821         135.741         135.802         135.920         136.089         136.268         136.447         136.621         136.791         136.958    
          137.123         137.282         137.433         137.579         137.725         137.873         138.025         138.182         138.343         138.506    
          138.672         138.839         139.012         139.187         139.356         139.519         139.679         139.837         139.998         140.164    
          140.339         140.524         140.720         140.918         141.081         133.677         133.694         133.713         133.736         133.761    
          133.787         133.815         133.844         133.874         133.906         133.938         133.972         134.008         134.044         134.083    
          134.123         134.164         134.207         134.251         134.296         134.344         134.394         134.446         134.500         134.556    
          134.614         134.674         134.737         134.778         134.809         134.793         134.822         134.842         134.874         134.857    
          134.884         134.910         134.940         134.919         134.953         135.002         135.076         135.149         135.218         135.283    
          135.346         135.411         135.481         135.544         135.576         135.534         135.571         135.621         135.669         135.615    
          135.662         135.723         135.785         135.715         135.777         135.860         135.928         135.848         135.928         136.066    
          136.258         136.447         136.628         136.804         136.974         137.139         137.299         137.451         137.597         137.743    
          137.893         138.046         138.203         138.363         138.525         138.690         138.858         139.030         139.203         139.370    
          139.535         139.694         139.850         140.008         140.171         140.342         140.525         140.719         140.915         141.080    
          133.701         133.719         133.740         133.764         133.790         133.819         133.849         133.880         133.913         133.947    
          133.982         134.019         134.058         134.098         134.139         134.183         134.227         134.272         134.320         134.369    
          134.420         134.474         134.529         134.586         134.644         134.704         134.767         134.830         134.894         134.936    
          134.968         134.951         134.981         135.004         135.033         135.018         135.047         135.072         135.101         135.084    
          135.112         135.140         135.168         135.149         135.177         135.206         135.233         135.214         135.241         135.269    
          135.295         135.277         135.304         135.331         135.357         135.341         135.368         135.393         135.422         135.406    
          135.436         135.463         135.495         135.477         135.509         135.536         135.574         135.553         135.589         135.619    
          135.666         135.636         135.682         135.719         135.780         135.735         135.795         135.851         135.933         135.865    
          135.944         136.071         136.267         136.461         136.647         136.824         136.993         137.159         137.320         137.472    
          137.619         137.765         137.915         138.070         138.228         138.388         138.549         138.713         138.878         139.049    
          139.220         139.389         139.553         139.712         139.867         140.022         140.183         140.355         140.539         140.729    
          140.922         141.086         133.727         133.745         133.768         133.794         133.823         133.853         133.885         133.919    
          133.955         133.992         134.030         134.071         134.112         134.156         134.201         134.246         134.294         134.342    
          134.393         134.446         134.500         134.556         134.613         134.673         134.734         134.797         134.861         134.926    
          134.992         135.059         135.125         135.191         135.259         135.326         135.395         135.465         135.537         135.616    
          135.668         135.710         135.702         135.743         135.760         135.818         135.798         135.847         135.886         135.964    
          135.915         135.987         136.054         136.132         136.069         136.155         136.292         136.488         136.675         136.851    
          137.021         137.187         137.346         137.497         137.644         137.792         137.942         138.098         138.259         138.419    
          138.579         138.741         138.906         139.074         139.243         139.410         139.574         139.732         139.886         140.040    
          140.202         140.374         140.557         140.749         140.941         141.103         133.754         133.774         133.799         133.827    
          133.858         133.890         133.925         133.962         134.000         134.041         134.083         134.126         134.172         134.218    
          134.266         134.314         134.364         134.416         134.470         134.525         134.582         134.641         134.701         134.763    
          134.827         134.893         134.961         135.030         135.101         135.175         135.249         135.324         135.398         135.473    
          135.547         135.623         135.704         135.790         135.889         135.959         136.024         135.999         136.069         136.100    
          136.186         136.146         136.214         136.342         136.533         136.716         136.891         137.060         137.222         137.378    
          137.528         137.676         137.823         137.975         138.133         138.295         138.456         138.615         138.777         138.941    
          139.105         139.270         139.435         139.599         139.757         139.910         140.065         140.227         140.399         140.581    
          140.772         140.967         141.128         133.784         133.806         133.832         133.862         133.895         133.931         133.969    
          134.009         134.051         134.094         134.140         134.187         134.235         134.285         134.335         134.386         134.439    
          134.494         134.551         134.609         134.668         134.729         134.793         134.859         134.927         134.998         135.070    
          135.147         135.227         135.310         135.391         135.473         135.554         135.635         135.717         135.802         135.892    
          135.949         135.991         135.992         136.047         136.052         136.122         136.107         136.168         136.251         136.418    
          136.595         136.770         136.942         137.107         137.266         137.419         137.569         137.716         137.862         138.014    
          138.174         138.337         138.499         138.660         138.821         138.983         139.141         139.301         139.466         139.629    
          139.785         139.939         140.095         140.258         140.430         140.611         140.802         140.998         141.161         133.816    
          133.839         133.867         133.900         133.936         133.975         134.016         134.060         134.105         134.153         134.202    
          134.252         134.303         134.355         134.408         134.462         134.518         134.576         134.635         134.695         134.758    
          134.823         134.891         134.962         135.036         135.113         135.194         135.281         135.372         135.461         135.550    
          135.639         135.728         135.815         135.905         135.999         136.053         136.103         136.103         136.153         136.164    
          136.229         136.217         136.276         136.352         136.505         136.671         136.837         137.002         137.164         137.320    
          137.471         137.620         137.767         137.911         138.062         138.222         138.386         138.550         138.711         138.871    
          139.029         139.183         139.339         139.500         139.660         139.816         139.970         140.128         140.293         140.465    
          140.646         140.837         141.035         141.200         133.850         133.875         133.906         133.941         133.981         134.023    
          134.068         134.115         134.165         134.216         134.268         134.320         134.374         134.429         134.485         134.543    
          134.602         134.662         134.723         134.787         134.855         134.926         135.000         135.078         135.159         135.247    
          135.340         135.438         135.537         135.636         135.734         135.828         135.919         136.013         136.109         136.211    
          136.276         136.335         136.318         136.377         136.451         136.597         136.754         136.913         137.073         137.231    
          137.385         137.533         137.682         137.829         137.971         138.120         138.277         138.440         138.605         138.765    
          138.923         139.076         139.227         139.380         139.537         139.695         139.849         140.005         140.165         140.331    
          140.505         140.685         140.877         141.074         141.238         133.887         133.914         133.948         133.987         134.030    
          134.076         134.125         134.176         134.228         134.282         134.337         134.393         134.450         134.508         134.567    
          134.628         134.689         134.752         134.819         134.889         134.963         135.041         135.124         135.212         135.305    
          135.407         135.515         135.624         135.732         135.835         135.933         136.031         136.130         136.221         136.315    
          136.373         136.431         136.415         136.471         136.546         136.690         136.841         136.995         137.153         137.307    
          137.458         137.605         137.754         137.899         138.040         138.186         138.338         138.497         138.660         138.819    
          138.972         139.122         139.273         139.424         139.579         139.733         139.887         140.046         140.207         140.373    
          140.547         140.728         140.919         141.116         141.280         133.927         133.958         133.996         134.038         134.085    
          134.134         134.186         134.240         134.296         134.353         134.411         134.470         134.531         134.592         134.654    
          134.718         134.784         134.852         134.926         135.004         135.087         135.176         135.272         135.374         135.485    
          135.603         135.723         135.839         135.951         136.057         136.161         136.255         136.338         136.424         136.472    
          136.526         136.519         136.571         136.641         136.782         136.929         137.082         137.236         137.388         137.537    
          137.686         137.834         137.975         138.113         138.253         138.398         138.554         138.713         138.869         139.020    
          139.169         139.320         139.470         139.622         139.775         139.930         140.090         140.251         140.417         140.591    
          140.772         140.963         141.161         141.323         133.973         134.008         134.049         134.095         134.144         134.196    
          134.251         134.308         134.367         134.428         134.490         134.553         134.617         134.682         134.748         134.817    
          134.889         134.966         135.049         135.137         135.235         135.340         135.452         135.576         135.708         135.840    
          135.968         136.087         136.196         136.295         136.381         136.459         136.539         136.582         136.633         136.629    
          136.679         136.742         136.876         137.020         137.171         137.324         137.475         137.624         137.773         137.916    
          138.050         138.182         138.317         138.461         138.611         138.766         138.917         139.065         139.216         139.325    
          139.390         139.340         139.418         139.475         139.537         139.500         139.563         139.624         139.690         139.651    
          139.718         139.779         139.847         139.807         139.876         139.937         140.002         139.964         140.030         140.092    
          140.160         140.119         140.186         140.252         140.323         140.274         140.353         140.416         140.490         140.438    
          140.519         140.586         140.662         140.606         140.689         140.816         141.009         141.207         141.369         134.027    
          134.063         134.106         134.154         134.206         134.262         134.320         134.381         134.444         134.509         134.575    
          134.642         134.711         134.781         134.853         134.929         135.011         135.100         135.196         135.302         135.418    
          135.546         135.686         135.832         135.976         136.111         136.229         136.334         136.426         136.502         136.573    
          136.647         136.689         136.737         136.731         136.778         136.841         136.971         137.113         137.264         137.416    
          137.564         137.712         137.857         137.991         138.118         138.249         138.384         138.524         138.669         138.775    
          138.837         138.790         138.863         138.919         138.982         138.943         139.005         139.066         139.131         139.091    
          139.155         139.216         139.281         139.242         139.307         139.364         139.441         139.394         139.459         139.571    
          139.728         139.886         140.041         140.198         140.305         140.381         140.335         140.405         140.464         140.546    
          140.496         140.569         140.633         140.719         140.664         140.738         140.815         140.893         140.834         140.921    
          141.054         141.251         141.415         134.083         134.121         134.166         134.217         134.272         134.332         134.394    
          134.459         134.527         134.597         134.668         134.741         134.816         134.893         134.974         135.062         135.158    
          135.264         135.382         135.512         135.657         135.812         135.968         136.115         136.249         136.365         136.463    
          136.545         136.613         136.677         136.711         136.739         136.747         136.785         136.781         136.830         136.828    
          136.866         136.935         137.066         137.208         137.358         137.505         137.650         137.793         137.930         138.059    
          138.184         138.314         138.448         138.543         138.602         138.562         138.632         138.679         138.736         138.706    
          138.763         138.812         138.885         138.842         138.903         139.011         139.166         139.322         139.479         139.636    
          139.796         139.957         140.112         140.263         140.417         140.575         140.740         140.862         140.948         140.886    
          140.963         141.048         141.130         141.063         141.155         141.293         141.453         134.142         134.182         134.230    
          134.284         134.343         134.407         134.474         134.545         134.619         134.696         134.773         134.854         134.936    
          135.025         135.120         135.226         135.343         135.473         135.617         135.776         135.940         136.100         136.248    
          136.378         136.488         136.580         136.654         136.717         136.771         136.796         136.831         136.832         136.865    
          136.915         137.031         137.161         137.299         137.442         137.586         137.729         137.867         138.000         138.126    
          138.249         138.377         138.466         138.520         138.488         138.556         138.591         138.662         138.628         138.684    
          138.780         138.926         139.082         139.240         139.398         139.556         139.715         139.875         140.030         140.180    
          140.330         140.479         140.630         140.785         140.954         141.086         141.178         141.103         141.185         141.284    
          141.364         141.293         141.372         141.452         141.459         134.203         134.246         134.297         134.355         134.419    
          134.488         134.563         134.642         134.724         134.809         134.896         134.986         135.083         135.188         135.304    
          135.432         135.575         135.730         135.900         136.070         136.234         136.380         136.507         136.612         136.700    
          136.770         136.824         136.871         136.886         136.915         136.934         136.963         136.964         137.012         137.012    
          137.059         137.125         137.250         137.383         137.525         137.666         137.804         137.938         138.068         138.190    
          138.312         138.440         138.524         138.592         138.552         138.620         138.709         138.854         139.006         139.165    
          139.323         139.480         139.641         139.804         139.962         140.114         140.261         140.405         140.545         140.683    
          140.827         140.982         141.152         141.332         141.481         134.268         134.313         134.368         134.431         134.503    
          134.581         134.666         134.756         134.848         134.944         135.044         135.152         135.269         135.397         135.539    
          135.695         135.865         136.044         136.219         136.381         136.523         136.642         136.742         136.826         136.889    
          136.938         136.986         137.038         137.072         137.118         137.119         137.164         137.224         137.342         137.472    
          137.607         137.743         137.878         138.011         138.136         138.255         138.379         138.467         138.520         138.493    
          138.561         138.591         138.659         138.633         138.689         138.787         138.940         139.098         139.261         139.422    
          139.583         139.748         139.915         140.072         140.221         140.359         140.490         140.614         140.735         140.860    
          140.995         141.145         141.321         141.470         134.335         134.384         134.445         134.518         134.601         134.693    
          134.790         134.892         134.999         135.113         135.234         135.366         135.511         135.668         135.842         136.025    
          136.208         136.383         136.542         136.677         136.786         136.879         136.955         137.012         137.060         137.107    
          137.159         137.186         137.224         137.237         137.277         137.278         137.324         137.327         137.373         137.438    
          137.561         137.690         137.821         137.951         138.039         138.092         138.066         138.132         138.162         138.212    
          138.199         138.249         138.281         138.332         138.319         138.371         138.404         138.459         138.444         138.501    
          138.533         138.603         138.578         138.635         138.731         138.885         139.042         139.206         139.375         139.545    
          139.712         139.884         140.055         140.214         140.356         140.478         140.589         140.690         140.785         140.884    
          140.987         141.109         141.303         141.453         134.407         134.464         134.536         134.623         134.722         134.829    
          134.944         135.065         135.195         135.334         135.486         135.649         135.826         136.008         136.196         136.380    
          136.554         136.707         136.836         136.943         137.027         137.096         137.149         137.194         137.236         137.284    
          137.348         137.387         137.430         137.436         137.480         137.488         137.537         137.535         137.584         137.651    
          137.774         137.857         137.909         137.888         137.954         137.980         138.033         138.023         138.076         138.103    
          138.169         138.146         138.200         138.282         138.409         138.541         138.686         138.839         138.996         139.159    
          139.332         139.515         139.699         139.879         140.063         140.236         140.385         140.513         140.615         140.698    
          140.773         140.834         140.903         140.962         141.002         134.492         134.562         134.650         134.755         134.874    
          135.004         135.144         135.294         135.456         135.630         135.812         135.997         136.187         136.379         136.564    
          136.734         136.882         137.005         137.107         137.190         137.256         137.302         137.340         137.375         137.418    
          137.475         137.553         137.596         137.642         137.648         137.696         137.701         137.747         137.755         137.803    
          137.815         137.867         137.870         137.924         137.936         138.004         137.993         138.046         138.122         138.250    
          138.381         138.511         138.652         138.801         138.956         139.116         139.292         139.489         139.692         139.895    
          140.094         140.277         140.442         140.586         140.701         140.780         140.824         140.878         140.879         140.933    
          134.598         134.684         134.794         134.926         135.075         135.239         135.414         135.602         135.795         135.988    
          136.184         136.382         136.578         136.764         136.931         137.074         137.192         137.289         137.368         137.430    
          137.475         137.507         137.536         137.574         137.627         137.700         137.781         137.886         138.006         138.127    
          138.251         138.379         138.506         138.638         138.776         138.925         139.084         139.254         139.451         139.677    
          139.910         140.129         140.332         140.515         140.680         140.827         140.938         140.993         140.950         141.045    
          134.733         134.842         134.987         135.160         135.352         135.556         135.766         135.973         136.180         136.387    
          136.594         136.796         136.984         137.148         137.285         137.396         137.488         137.563         137.624         137.671    
          137.706         137.736         137.768         137.818         137.895         137.979         138.084         138.198         138.311         138.429    
          138.548         138.664         138.787         138.919         139.070         139.236         139.419         139.630         139.890         140.141    
          140.378         140.592         140.780         140.944         141.119         141.252         141.324         134.906         135.063         135.264    
          135.489         135.720         135.943         136.164         136.385         136.606         136.823         137.033         137.223         137.383    
          137.513         137.616         137.702         137.776         137.846         137.906         137.950         137.984         138.027         138.105    
          138.209         138.309         138.412         138.505         138.598         138.693         138.782         138.870         138.974         139.092    
          139.243         139.413         139.601         139.801         140.092         140.382         140.650         140.889         141.081         141.214    
          135.166         135.393         135.652         135.898         136.132         136.366         136.603         136.840         137.071         137.292    
          137.484         137.640         137.760         137.850         137.934         137.997         138.103         138.200         138.254         138.291    
          138.353         138.484         138.656         138.781         138.876         138.950         138.999         139.050         139.084         139.112    
          139.180         139.275         139.420         139.591         139.757         139.868         135.562         135.844         136.092         136.330    
          136.575         136.830         137.086         137.336         137.571         137.769         137.924         138.029         138.096         138.190    
          138.188         138.402         136.072         136.301         136.527         136.783         137.061         137.344         137.626         137.884    
          138.099         138.256         138.340         138.323         138.551         136.511         136.698         136.971         137.293         137.619    
          137.960         138.255         138.496         138.667         138.762    
1
  HEAD IN LAYER   3 AT END OF TIME STEP  48 IN STRESS PERIOD    2
  ---------------------------------------------------------------------------

                1               2               3               4               5               6               7               8               9              10
               11              12              13              14              15              16              17              18              19              20
               21              22              23              24              25              26              27              28              29              30
               31              32              33              34              35              36              37              38              39              40
               41              42              43              44              45              46              47              48              49              50
               51              52              53              54              55              56              57              58              59              60
               61              62              63              64              65              66              67              68              69              70
               71              72              73              74              75              76              77              78              79              80
               81              82              83              84              85              86              87              88              89              90
               91              92              93              94              95              96              97              98              99             100
              101             102             103             104             105             106             107             108             109             110
              111             112             113             114             115             116             117             118             119             120
              121             122             123             124             125             126             127             128             129             130
              131             132             133             134             135             136             137             138             139             140
              141             142             143             144             145             146             147             148             149             150
              151             152             153             154             155             156             157             158             159             160
              161             162             163             164             165             166             167             168             169             170
              171             172             173             174             175             176             177             178             179             180
              181             182             183             184             185             186             187             188             189             190
              191             192             193             194             195             196             197             198             199             200
              201             202             203             204             205             206             207             208             209             210
              211             212             213             214             215             216             217             218             219             220
              221             222             223             224             225             226             227             228             229             230
              231             232             233             234             235             236             237             238             239             240
              241             242             243             244             245             246             247             248             249             250
              251             252             253             254             255             256             257             258             259             260
              261             262             263             264             265             266             267             268             269             270
              271             272             273             274             275             276             277             278             279             280
              281             282             283             284             285             286             287             288             289             290
              291             292             293             294             295             296             297             298             299             300
              301             302             303             304             305             306             307             308             309             310
              311             312             313             314             315             316             317             318             319             320
              321             322             323             324             325             326             327             328             329             330
              331             332             333             334             335             336             337             338             339             340
              341             342             343             344             345             346             347             348             349             350
              351             352             353             354             355             356             357             358             359             360
              361             362             363             364             365             366             367             368             369             370
              371             372             373             374             375             376             377             378             379             380
              381             382             383             384             385             386             387             388             389             390
              391             392             393             394             395             396             397             398             399             400
              401             402             403             404             405             406             407             408             409             410
              411             412             413             414             415             416             417             418             419             420
              421             422             423             424             425             426             427             428             429             430
              431             432             433             434             435             436             437             438             439             440
              441             442             443             444             445             446             447             448             449             450
              451             452             453             454             455             456             457             458             459             460
              461             462             463             464             465             466             467             468             469             470
              471             472             473             474             475             476             477             478             479             480
              481             482             483             484             485             486             487             488             489             490
              491             492             493             494             495             496             497             498             499             500
              501             502             503             504             505             506             507             508             509             510
              511             512             513             514             515             516             517             518             519             520
              521             522             523             524             525             526             527             528             529             530
              531             532             533             534             535             536             537             538             539             540
              541             542             543             544             545             546             547             548             549             550
              551             552             553             554             555             556             557             558             559             560
              561             562             563             564             565             566             567             568             569             570
              571             572             573             574             575             576             577             578             579             580
              581             582             583             584             585             586             587             588             589             590
              591             592             593             594             595             596             597             598             599             600
              601             602             603             604             605             606             607             608             609             610
              611             612             613             614             615             616             617             618             619             620
              621             622             623             624             625             626             627             628             629             630
              631             632             633             634             635             636             637             638             639             640
              641             642             643             644             645             646             647             648             649             650
              651             652             653             654             655             656             657             658             659             660
              661             662             663             664             665             666             667             668             669             670
              671             672             673             674             675             676             677             678             679             680
              681             682             683             684             685             686             687             688             689             690
              691             692             693             694             695             696             697             698             699             700
              701             702             703             704             705             706             707             708             709             710
              711             712             713             714             715             716             717             718             719             720
              721             722             723             724             725             726             727             728             729             730
              731             732             733             734             735             736             737             738             739             740
              741             742             743             744             745             746             747             748             749             750
              751             752             753             754             755             756             757             758             759             760
              761             762             763             764             765             766             767             768             769             770
              771             772             773             774             775             776             777             778             779             780
              781             782             783             784             785             786             787             788             789             790
              791             792             793             794             795             796             797             798             799             800
              801             802             803             804             805             806             807             808             809             810
              811             812             813             814             815             816             817             818             819             820
              821             822             823             824             825             826             827             828             829             830
              831             832             833             834             835             836             837             838             839             840
              841             842             843             844             845             846             847             848             849             850
              851             852             853             854             855             856             857             858             859             860
              861             862             863             864             865             866             867             868             869             870
              871             872             873             874             875             876             877             878             879             880
              881             882             883             884             885             886             887             888             889             890
              891             892             893             894             895             896             897             898             899             900
              901             902             903             904             905             906             907             908             909             910
              911             912             913             914             915             916             917             918             919             920
              921             922             923             924             925             926             927             928             929             930
              931             932             933             934             935             936             937             938             939             940
              941             942             943             944             945             946             947             948             949             950
              951             952             953             954             955             956             957             958             959             960
              961             962             963             964             965             966             967             968             969             970
              971             972             973             974             975             976             977             978             979             980
              981             982             983             984             985             986             987             988             989             990
              991             992             993             994             995             996             997             998             999            1000
             1001            1002            1003            1004            1005            1006            1007            1008            1009            1010
             1011            1012            1013            1014            1015            1016            1017            1018            1019            1020
             1021            1022            1023            1024            1025            1026            1027            1028            1029            1030
             1031            1032            1033            1034            1035            1036            1037            1038            1039            1040
             1041            1042            1043            1044            1045            1046            1047            1048            1049            1050
             1051            1052            1053            1054            1055            1056            1057            1058            1059            1060
             1061            1062            1063            1064            1065            1066            1067            1068            1069            1070
             1071            1072            1073            1074            1075            1076            1077            1078            1079            1080
             1081            1082            1083            1084            1085            1086            1087            1088            1089            1090
             1091            1092            1093            1094            1095            1096            1097            1098            1099            1100
             1101            1102            1103            1104            1105            1106            1107            1108            1109            1110
             1111            1112            1113            1114            1115            1116            1117            1118            1119            1120
             1121            1122            1123            1124            1125            1126            1127            1128            1129            1130
             1131            1132            1133            1134            1135            1136            1137            1138            1139            1140
             1141            1142            1143            1144            1145            1146            1147            1148            1149            1150
             1151            1152            1153            1154            1155            1156            1157            1158            1159            1160
             1161            1162            1163            1164            1165            1166            1167            1168            1169            1170
             1171            1172            1173            1174            1175            1176            1177            1178            1179            1180
             1181            1182            1183            1184            1185            1186            1187            1188            1189            1190
             1191            1192            1193            1194            1195            1196            1197            1198            1199            1200
             1201            1202            1203            1204            1205            1206            1207            1208            1209            1210
             1211            1212            1213            1214            1215            1216            1217            1218            1219            1220
             1221            1222            1223            1224            1225            1226            1227            1228            1229            1230
             1231            1232            1233            1234            1235            1236            1237            1238            1239            1240
             1241            1242            1243            1244            1245            1246            1247            1248            1249            1250
             1251            1252            1253            1254            1255            1256            1257            1258            1259            1260
             1261            1262            1263            1264            1265            1266            1267            1268            1269            1270
             1271            1272            1273            1274            1275            1276            1277            1278            1279            1280
             1281            1282            1283            1284            1285            1286            1287            1288            1289            1290
             1291            1292            1293            1294            1295            1296            1297            1298            1299            1300
             1301            1302            1303            1304            1305            1306            1307            1308            1309            1310
             1311            1312            1313            1314            1315            1316            1317            1318            1319            1320
             1321            1322            1323            1324            1325            1326            1327            1328            1329            1330
             1331            1332            1333            1334            1335            1336            1337            1338            1339            1340
             1341            1342            1343            1344            1345            1346            1347            1348            1349            1350
             1351            1352            1353            1354            1355            1356            1357            1358            1359            1360
             1361            1362            1363            1364            1365            1366            1367            1368            1369            1370
             1371            1372            1373            1374            1375            1376            1377            1378            1379            1380
             1381            1382            1383            1384            1385            1386            1387            1388            1389            1390
             1391            1392            1393            1394            1395            1396            1397            1398            1399            1400
             1401            1402            1403            1404            1405            1406            1407            1408            1409            1410
             1411            1412            1413            1414            1415            1416            1417            1418            1419            1420
             1421            1422            1423            1424            1425            1426            1427            1428            1429            1430
             1431            1432            1433            1434            1435            1436            1437            1438            1439            1440
             1441            1442            1443            1444            1445            1446            1447            1448            1449            1450
             1451            1452            1453            1454            1455            1456            1457            1458            1459            1460
             1461            1462            1463            1464            1465            1466            1467            1468            1469            1470
             1471            1472            1473            1474            1475            1476            1477            1478            1479            1480
             1481            1482            1483            1484            1485            1486            1487            1488            1489            1490
             1491            1492            1493            1494            1495            1496            1497            1498            1499            1500
             1501            1502            1503            1504            1505            1506            1507            1508            1509            1510
             1511            1512            1513            1514            1515            1516            1517            1518            1519            1520
             1521            1522            1523            1524            1525            1526            1527            1528            1529            1530
             1531            1532            1533            1534            1535            1536            1537            1538            1539            1540
             1541            1542            1543            1544            1545            1546            1547            1548            1549            1550
             1551            1552            1553            1554            1555            1556            1557            1558            1559            1560
             1561            1562            1563            1564            1565            1566            1567            1568            1569            1570
             1571            1572            1573            1574            1575            1576            1577            1578            1579            1580
             1581            1582            1583            1584            1585            1586            1587            1588            1589            1590
             1591            1592            1593            1594            1595            1596            1597            1598            1599            1600
             1601            1602            1603            1604            1605            1606            1607            1608            1609            1610
             1611            1612            1613            1614            1615            1616            1617            1618            1619            1620
             1621            1622            1623            1624            1625            1626            1627            1628            1629            1630
             1631            1632            1633            1634            1635            1636            1637            1638            1639            1640
             1641            1642            1643            1644            1645            1646            1647            1648            1649            1650
             1651            1652            1653            1654            1655            1656            1657            1658            1659            1660
             1661            1662            1663            1664            1665            1666            1667            1668            1669            1670
             1671            1672            1673            1674            1675            1676            1677            1678            1679            1680
             1681            1682            1683            1684            1685            1686            1687            1688            1689            1690
             1691            1692            1693            1694            1695            1696            1697            1698            1699            1700
             1701            1702            1703            1704            1705            1706            1707            1708            1709            1710
             1711            1712            1713            1714            1715            1716            1717            1718            1719            1720
             1721            1722            1723            1724            1725            1726            1727            1728            1729            1730
             1731            1732            1733            1734            1735            1736            1737            1738            1739            1740
             1741            1742            1743            1744            1745            1746            1747            1748            1749            1750
             1751            1752            1753            1754            1755            1756            1757            1758            1759            1760
             1761            1762            1763            1764            1765            1766            1767            1768            1769            1770
             1771            1772            1773            1774            1775            1776            1777            1778            1779            1780
             1781            1782            1783            1784            1785            1786            1787            1788            1789            1790
             1791            1792            1793            1794            1795            1796            1797            1798            1799            1800
             1801            1802            1803            1804            1805            1806            1807            1808            1809            1810
             1811            1812            1813            1814            1815            1816            1817            1818            1819            1820
             1821            1822            1823            1824            1825            1826            1827            1828            1829            1830
             1831            1832            1833            1834            1835            1836            1837            1838            1839            1840
             1841            1842            1843            1844            1845            1846            1847            1848            1849            1850
             1851            1852            1853            1854            1855            1856            1857            1858            1859            1860
             1861            1862            1863            1864            1865            1866            1867            1868            1869            1870
             1871            1872            1873            1874            1875            1876            1877            1878            1879            1880
             1881            1882            1883            1884            1885            1886            1887            1888            1889            1890
             1891            1892            1893            1894            1895            1896            1897            1898            1899            1900
             1901            1902            1903            1904            1905            1906            1907            1908            1909            1910
             1911            1912            1913            1914            1915            1916            1917            1918            1919            1920
             1921            1922            1923            1924            1925            1926            1927            1928            1929            1930
             1931            1932            1933            1934            1935            1936            1937            1938            1939            1940
             1941            1942            1943            1944            1945            1946            1947            1948            1949            1950
             1951            1952            1953            1954            1955            1956            1957            1958            1959            1960
             1961            1962            1963            1964            1965            1966            1967            1968            1969            1970
             1971            1972            1973            1974            1975            1976            1977            1978            1979            1980
             1981            1982            1983            1984            1985            1986            1987            1988            1989            1990
             1991            1992            1993            1994            1995            1996            1997            1998            1999            2000
             2001            2002            2003            2004            2005            2006            2007            2008            2009            2010
             2011            2012            2013            2014            2015            2016            2017            2018            2019            2020
             2021            2022            2023            2024            2025            2026            2027            2028            2029            2030
             2031            2032            2033            2034            2035            2036            2037            2038            2039            2040
             2041            2042            2043            2044            2045            2046            2047            2048            2049            2050
             2051            2052            2053            2054            2055            2056            2057            2058            2059            2060
             2061            2062            2063            2064            2065            2066            2067            2068            2069            2070
             2071            2072            2073            2074            2075            2076            2077            2078            2079            2080
             2081            2082            2083            2084            2085            2086            2087            2088            2089            2090
             2091            2092            2093            2094            2095            2096            2097            2098            2099            2100
             2101            2102            2103            2104            2105            2106            2107            2108            2109            2110
             2111            2112            2113            2114            2115            2116            2117            2118            2119            2120
             2121            2122            2123            2124            2125            2126            2127            2128            2129            2130
             2131            2132            2133            2134            2135            2136            2137            2138            2139            2140
             2141            2142            2143            2144            2145            2146            2147            2148            2149            2150
             2151            2152            2153            2154            2155            2156            2157            2158            2159            2160
             2161            2162            2163            2164            2165            2166            2167            2168            2169            2170
             2171            2172            2173            2174            2175            2176            2177            2178            2179            2180
             2181            2182            2183            2184            2185            2186            2187            2188            2189            2190
             2191            2192            2193            2194            2195            2196            2197            2198            2199            2200
             2201            2202            2203            2204            2205            2206            2207            2208            2209            2210
             2211            2212            2213            2214            2215            2216            2217            2218            2219            2220
             2221            2222            2223            2224            2225            2226            2227            2228            2229            2230
             2231            2232            2233            2234            2235            2236            2237            2238            2239            2240
             2241            2242            2243            2244            2245            2246            2247            2248            2249            2250
             2251            2252            2253            2254            2255            2256            2257            2258            2259            2260
             2261            2262            2263            2264            2265            2266            2267            2268            2269            2270
             2271            2272            2273            2274            2275            2276            2277            2278            2279            2280
             2281            2282            2283            2284            2285            2286            2287            2288            2289            2290
             2291            2292            2293            2294            2295            2296            2297            2298            2299            2300
             2301            2302            2303            2304            2305            2306            2307            2308            2309            2310
             2311            2312            2313            2314            2315            2316            2317            2318            2319            2320
             2321            2322            2323            2324            2325            2326            2327            2328            2329            2330
             2331            2332            2333            2334            2335            2336            2337            2338            2339            2340
             2341            2342            2343            2344            2345            2346            2347            2348            2349            2350
             2351            2352            2353            2354            2355            2356            2357            2358            2359            2360
             2361            2362            2363            2364            2365            2366            2367            2368            2369            2370
             2371            2372            2373            2374            2375            2376            2377            2378            2379            2380
             2381            2382            2383            2384            2385            2386            2387            2388            2389            2390
             2391            2392            2393            2394            2395            2396            2397            2398            2399            2400
             2401            2402            2403            2404            2405            2406            2407            2408            2409            2410
             2411            2412            2413            2414            2415            2416            2417            2418            2419            2420
             2421            2422            2423            2424            2425            2426            2427            2428            2429            2430
             2431            2432            2433            2434            2435            2436            2437            2438            2439            2440
             2441            2442            2443            2444            2445            2446            2447            2448            2449            2450
             2451            2452            2453            2454            2455            2456            2457            2458            2459            2460
             2461            2462            2463            2464            2465            2466            2467            2468            2469            2470
             2471            2472            2473            2474            2475            2476            2477            2478            2479            2480
             2481            2482            2483            2484            2485            2486            2487            2488            2489            2490
             2491            2492            2493            2494            2495            2496            2497            2498            2499            2500
             2501            2502            2503            2504            2505            2506            2507            2508            2509            2510
             2511            2512            2513            2514            2515            2516            2517            2518            2519            2520
             2521            2522            2523            2524            2525            2526            2527            2528            2529            2530
             2531            2532            2533            2534            2535            2536            2537            2538            2539            2540
             2541            2542            2543            2544            2545            2546            2547            2548            2549            2550
             2551            2552            2553            2554            2555            2556            2557            2558            2559            2560
             2561            2562            2563            2564            2565            2566            2567            2568            2569            2570
             2571            2572            2573            2574            2575            2576            2577            2578            2579            2580
             2581            2582            2583            2584            2585            2586            2587            2588            2589            2590
             2591            2592            2593            2594            2595            2596            2597            2598            2599            2600
             2601            2602            2603            2604            2605            2606            2607            2608            2609            2610
             2611            2612            2613            2614            2615            2616            2617            2618            2619            2620
             2621            2622            2623            2624            2625            2626            2627            2628            2629            2630
             2631            2632            2633            2634            2635            2636            2637            2638            2639            2640
             2641            2642            2643            2644            2645            2646            2647            2648            2649            2650
             2651            2652            2653            2654            2655            2656            2657            2658            2659            2660
             2661            2662            2663            2664            2665            2666            2667            2668            2669            2670
             2671            2672            2673            2674            2675            2676            2677            2678            2679            2680
             2681            2682            2683            2684            2685            2686            2687            2688            2689            2690
             2691            2692            2693            2694            2695            2696            2697            2698            2699            2700
             2701            2702            2703            2704            2705            2706            2707            2708            2709            2710
             2711            2712            2713            2714            2715            2716            2717            2718            2719            2720
             2721            2722            2723            2724            2725            2726            2727            2728            2729            2730
             2731            2732            2733            2734            2735            2736            2737            2738            2739            2740
             2741            2742            2743            2744            2745            2746            2747            2748            2749            2750
             2751            2752            2753            2754            2755            2756            2757            2758            2759            2760
             2761            2762            2763            2764            2765            2766            2767            2768            2769            2770
             2771            2772            2773            2774            2775            2776            2777            2778            2779            2780
             2781            2782            2783            2784            2785            2786            2787            2788            2789            2790
             2791            2792            2793            2794            2795            2796            2797            2798            2799            2800
             2801            2802            2803            2804            2805            2806            2807            2808            2809            2810
             2811            2812            2813            2814            2815            2816            2817            2818            2819            2820
             2821            2822            2823            2824            2825            2826            2827            2828            2829            2830
             2831            2832            2833            2834            2835            2836            2837            2838            2839            2840
             2841            2842            2843            2844            2845            2846            2847            2848            2849            2850
             2851            2852            2853            2854            2855            2856            2857            2858            2859            2860
             2861            2862            2863            2864            2865            2866            2867            2868            2869            2870
             2871            2872            2873            2874            2875            2876            2877            2878            2879            2880
             2881            2882            2883            2884            2885            2886            2887            2888            2889            2890
             2891            2892            2893            2894            2895            2896            2897            2898            2899            2900
             2901            2902            2903            2904            2905            2906            2907            2908            2909            2910
             2911            2912            2913            2914            2915            2916            2917            2918            2919            2920
             2921            2922            2923            2924            2925            2926            2927            2928            2929            2930
             2931            2932            2933            2934            2935            2936            2937            2938            2939            2940
             2941            2942            2943            2944            2945            2946            2947            2948            2949            2950
             2951            2952            2953            2954            2955            2956            2957            2958            2959            2960
             2961            2962            2963            2964            2965            2966            2967            2968            2969            2970
             2971            2972            2973            2974            2975            2976            2977            2978            2979            2980
             2981            2982            2983            2984            2985            2986            2987            2988            2989            2990
             2991            2992            2993            2994            2995            2996            2997            2998            2999            3000
             3001            3002            3003            3004            3005            3006            3007            3008            3009            3010
             3011            3012            3013            3014            3015            3016            3017            3018            3019            3020
             3021            3022            3023            3024            3025            3026            3027            3028            3029            3030
             3031            3032            3033            3034            3035            3036            3037            3038            3039            3040
             3041            3042            3043            3044            3045            3046            3047            3048            3049            3050
             3051            3052            3053            3054            3055            3056            3057            3058            3059            3060
             3061            3062            3063            3064            3065            3066            3067            3068            3069            3070
             3071            3072            3073            3074            3075            3076            3077            3078            3079            3080
             3081            3082            3083            3084            3085            3086            3087            3088            3089            3090
             3091            3092            3093            3094            3095            3096            3097            3098            3099            3100
             3101            3102            3103            3104            3105            3106            3107            3108            3109            3110
             3111            3112            3113            3114            3115            3116            3117            3118            3119            3120
             3121            3122            3123            3124            3125            3126            3127            3128            3129            3130
             3131            3132            3133            3134            3135
 ................................................................................................................................................................
   1      133.680         133.679         133.678         133.677         133.679         133.683         133.679         133.682         133.690         133.708    
          133.736         133.772         133.815         133.863         133.915         133.971         134.028         134.086         134.145         134.201    
          134.252         134.295         134.323         133.677         133.678         133.678         133.677         133.677         133.679         133.682    
          133.679         133.681         133.687         133.692         133.686         133.692         133.706         133.732         133.767         133.809    
          133.856         133.909         133.965         134.023         134.082         134.141         134.199         134.253         134.301         134.342    
          134.378         133.672         133.675         133.676         133.676         133.676         133.677         133.680         133.686         133.692    
          133.687         133.692         133.700         133.709         133.700         133.708         133.722         133.735         133.720         133.734    
          133.760         133.800         133.847         133.899         133.956         134.015         134.075         134.135         134.195         134.253    
          134.307         134.357         134.402         134.443         133.668         133.670         133.673         133.675         133.676         133.677    
          133.679         133.683         133.690         133.704         133.720         133.732         133.720         133.731         133.748         133.762    
          133.746         133.762         133.791         133.837         133.889         133.945         134.005         134.066         134.128         134.190    
          134.252         134.311         134.368         134.422         134.472         134.518         133.662         133.666         133.669         133.673    
          133.676         133.678         133.680         133.683         133.688         133.695         133.707         133.726         133.745         133.761    
          133.747         133.759         133.779         133.796         133.777         133.796         133.829         133.880         133.936         133.996    
          134.058         134.121         134.184         134.249         134.313         134.376         134.438         134.498         134.555         134.608    
          133.656         133.660         133.665         133.669         133.673         133.677         133.681         133.685         133.690         133.695    
          133.703         133.714         133.731         133.755         133.778         133.796         133.781         133.796         133.818         133.836    
          133.817         133.838         133.875         133.930         133.989         134.050         134.113         134.178         134.245         134.313    
          134.382         134.451         134.519         134.587         134.653         134.716         133.650         133.654         133.659         133.664    
          133.670         133.675         133.681         133.686         133.692         133.698         133.705         133.713         133.725         133.742    
          133.764         133.793         133.820         133.840         133.824         133.842         133.865         133.886         133.866         133.890    
          133.928         133.985         134.045         134.107         134.172         134.240         134.311         134.384         134.459         134.536    
          134.614         134.693         134.772         134.849         133.643         133.648         133.653         133.659         133.665         133.672    
          133.678         133.685         133.692         133.700         133.707         133.716         133.726         133.739         133.756         133.778    
          133.806         133.841         133.871         133.894         133.877         133.897         133.921         133.943         133.923         133.947    
          133.986         134.042         134.102         134.165         134.233         134.306         134.383         134.464         134.549         134.636    
          134.727         134.822         134.920         135.021         133.638         133.642         133.646         133.652         133.659         133.666    
          133.674         133.682         133.691         133.700         133.709         133.719         133.729         133.741         133.756         133.774    
          133.796         133.823         133.857         133.897         133.929         133.952         133.935         133.956         133.980         134.001    
          133.983         134.004         134.031         134.054         134.033         134.055         134.086         134.112         134.085         134.113    
          134.159         134.226         134.300         134.380         134.465         134.556         134.651         134.753         134.862         134.980    
          135.112         135.284         135.433         135.566         135.690         135.808         135.922         136.032         136.139         136.244    
          136.348         136.451         136.553         136.655         136.758         136.862         136.969         137.078         137.191         137.308    
          137.428         137.550         137.674         137.799         137.925         138.052         138.182         138.315         138.454         138.597    
          138.747         138.903         139.063         139.224         139.383         139.531         139.639         133.638         133.641         133.646    
          133.653         133.660         133.669         133.678         133.687         133.697         133.708         133.719         133.731         133.743    
          133.758         133.774         133.793         133.816         133.843         133.875         133.912         133.954         133.999         134.048    
          134.087         134.114         134.090         134.113         134.145         134.170         134.145         134.169         134.207         134.236    
          134.203         134.237         134.293         134.374         134.462         134.557         134.659         134.768         134.886         135.013    
          135.149         135.293         135.432         135.562         135.684         135.801         135.914         136.024         136.131         136.236    
          136.339         136.442         136.545         136.647         136.751         136.856         136.963         137.074         137.188         137.306    
          137.427         137.551         137.676         137.802         137.928         138.056         138.186         138.320         138.460         138.605    
          138.758         138.916         139.077         139.244         139.412         139.583         139.744         139.902         133.638         133.641    
          133.647         133.654         133.662         133.672         133.682         133.693         133.705         133.717         133.730         133.744    
          133.759         133.774         133.792         133.813         133.836         133.863         133.894         133.929         133.968         134.010    
          134.055         134.104         134.158         134.203         134.236         134.204         134.236         134.289         134.368         134.457    
          134.554         134.659         134.772         134.895         135.027         135.161         135.295         135.427         135.553         135.673    
          135.788         135.900         136.008         136.115         136.220         136.323         136.426         136.530         136.633         136.738    
          136.844         136.953         137.065         137.181         137.302         137.426         137.552         137.679         137.806         137.934    
          138.062         138.193         138.329         138.471         138.618         138.773         138.934         139.101         139.273         139.453    
          139.642         139.828         140.007         140.170         133.639         133.642         133.648         133.656         133.665         133.676    
          133.687         133.700         133.713         133.727         133.742         133.757         133.774         133.792         133.811         133.833    
          133.857         133.884         133.914         133.948         133.984         134.024         134.066         134.113         134.164         134.206    
          134.237         134.210         134.236         134.273         134.302         134.271         134.305         134.362         134.449         134.546    
          134.652         134.767         134.892         135.027         135.159         135.288         135.417         135.539         135.657         135.770    
          135.880         135.988         136.094         136.198         136.302         136.406         136.511         136.615         136.721         136.830    
          136.941         137.055         137.174         137.298         137.425         137.554         137.683         137.811         137.940         138.070    
          138.202         138.339         138.483         138.633         138.791         138.956         139.128         139.305         139.493         139.693    
          139.892         140.084         140.263         140.415         133.640         133.643         133.650         133.658         133.668         133.680    
          133.693         133.707         133.722         133.737         133.754         133.771         133.789         133.809         133.830         133.852    
          133.877         133.904         133.934         133.967         134.002         134.040         134.081         134.125         134.173         134.228    
          134.274         134.306         134.278         134.306         134.345         134.377         134.343         134.379         134.442         134.535    
          134.640         134.755         134.880         135.015         135.148         135.275         135.401         135.522         135.637         135.749    
          135.857         135.963         136.069         136.174         136.278         136.383         136.489         136.595         136.703         136.814    
          136.927         137.044         137.166         137.293         137.424         137.555         137.686         137.816         137.947         138.078    
          138.212         138.349         138.495         138.647         138.808         138.977         139.153         139.336         139.529         139.733    
          139.937         140.135         140.321         140.487         140.621         133.642         133.645         133.652         133.661         133.672    
          133.685         133.699         133.715         133.731         133.748         133.766         133.785         133.805         133.825         133.848    
          133.871         133.897         133.925         133.954         133.986         134.021         134.058         134.097         134.139         134.186    
          134.237         134.296         134.345         134.380         134.349         134.379         134.421         134.456         134.418         134.457    
          134.524         134.625         134.738         134.863         134.998         135.131         135.257         135.381         135.501         135.614    
          135.724         135.831         135.936         136.042         136.147         136.252         136.359         136.466         136.574         136.685    
          136.798         136.914         137.035         137.159         137.289         137.424         137.556         137.689         137.821         137.954    
          138.087         138.221         138.359         138.506         138.661         138.825         138.996         139.177         139.363         139.559    
          139.764         139.967         140.164         140.353         140.527         140.674         140.786         133.644         133.648         133.655    
          133.665         133.677         133.691         133.706         133.722         133.740         133.759         133.778         133.799         133.820    
          133.842         133.865         133.890         133.916         133.944         133.974         134.006         134.040         134.077         134.115    
          134.157         134.201         134.250         134.305         134.368         134.420         134.457         134.423         134.455         134.501    
          134.537         134.497         134.538         134.611         134.719         134.842         134.977         135.110         135.236         135.359    
          135.477         135.589         135.697         135.803         135.908         136.013         136.119         136.225         136.333         136.442    
          136.553         136.667         136.783         136.903         137.026         137.154         137.287         137.424         137.559         137.693    
          137.827         137.961         138.095         138.231         138.370         138.516         138.672         138.839         139.012         139.196    
          139.389         139.588         139.789         139.986         140.177         140.363         140.539         140.694         140.813         140.886    
          133.647         133.651         133.658         133.669         133.682         133.697         133.713         133.731         133.749         133.769    
          133.790         133.812         133.834         133.858         133.882         133.907         133.934         133.963         133.994         134.026    
          134.061         134.097         134.135         134.176         134.219         134.267         134.319         134.377         134.442         134.498    
          134.537         134.501         134.535         134.584         134.624         134.580         134.624         134.703         134.822         134.955    
          135.089         135.214         135.336         135.452         135.562         135.670         135.774         135.879         135.984         136.091    
          136.198         136.308         136.419         136.533         136.650         136.771         136.894         137.021         137.151         137.287    
          137.425         137.561         137.698         137.833         137.968         138.104         138.242         138.381         138.528         138.685    
          138.850         139.026         139.215         139.413         139.612         139.807         139.996         140.179         140.359         140.532    
          140.689         140.809         140.874         133.651         133.655         133.663         133.673         133.687         133.703         133.720    
          133.739         133.759         133.780         133.802         133.825         133.848         133.873         133.898         133.924         133.952    
          133.982         134.013         134.046         134.081         134.118         134.156         134.197         134.240         134.286         134.336    
          134.391         134.452         134.521         134.581         134.624         134.584         134.621         134.675         134.718         134.670    
          134.720         134.806         134.936         135.069         135.194         135.313         135.426         135.535         135.641         135.745    
          135.850         135.955         136.062         136.172         136.283         136.398         136.515         136.636         136.760         136.888    
          137.019         137.152         137.288         137.427         137.565         137.703         137.840         137.976         138.114         138.252    
          138.393         138.541         138.699         138.865         139.041         139.233         139.436         139.632         139.820         140.000    
          140.174         140.347         140.514         140.667         140.784         140.848         133.655         133.659         133.667         133.678    
          133.693         133.709         133.727         133.747         133.768         133.790         133.814         133.837         133.862         133.887    
          133.913         133.940         133.969         134.000         134.032         134.066         134.102         134.139         134.179         134.220    
          134.263         134.309         134.358         134.411         134.469         134.534         134.608         134.672         134.720         134.675    
          134.722         134.800         134.922         135.051         135.176         135.292         135.401         135.508         135.613         135.717    
          135.821         135.927         136.035         136.146         136.260         136.378         136.499         136.624         136.752         136.884    
          137.019         137.155         137.293         137.432         137.571         137.710         137.848         137.986         138.125         138.265    
          138.407         138.556         138.714         138.882         139.061         139.255         139.456         139.648         139.827         139.998    
          140.165         140.330         140.490         140.635         140.748         140.811         133.659         133.663         133.672         133.684    
          133.699         133.716         133.735         133.755         133.777         133.800         133.824         133.849         133.874         133.901    
          133.927         133.956         133.985         134.017         134.051         134.086         134.123         134.161         134.201         134.244    
          134.288         134.334         134.384         134.436         134.493         134.556         134.625         134.682         134.727         134.690    
          134.733         134.802         134.914         135.037         135.159         135.272         135.378         135.482         135.586         135.689    
          135.793         135.899         136.008         136.121         136.238         136.359         136.485         136.614         136.747         136.884    
          137.022         137.162         137.301         137.440         137.579         137.719         137.858         137.997         138.138         138.279    
          138.422         138.573         138.735         138.906         139.087         139.278         139.474         139.659         139.830         139.992    
          140.153         140.310         140.462         140.601         140.710         140.771         133.662         133.668         133.678         133.690    
          133.706         133.723         133.742         133.763         133.786         133.810         133.835         133.860         133.886         133.913    
          133.941         133.970         134.001         134.034         134.069         134.105         134.144         134.183         134.225         134.268    
          134.314         134.362         134.412         134.466         134.523         134.584         134.651         134.702         134.741         134.714    
          134.748         134.789         134.829         134.793         134.838         134.913         135.027         135.143         135.253         135.357    
          135.459         135.561         135.662         135.766         135.872         135.983         136.098         136.218         136.343         136.473    
          136.607         136.746         136.886         137.028         137.170         137.312         137.453         137.591         137.730         137.870    
          138.011         138.153         138.296         138.444         138.597         138.760         138.931         139.113         139.304         139.490    
          139.665         139.828         139.985         140.138         140.290         140.436         140.569         140.675         140.735         133.666    
          133.674         133.684         133.697         133.713         133.731         133.750         133.772         133.794         133.819         133.844    
          133.870         133.897         133.925         133.954         133.985         134.017         134.051         134.087         134.125         134.165    
          134.206         134.249         134.294         134.341         134.390         134.442         134.497         134.554         134.614         134.678    
          134.748         134.803         134.846         134.810         134.852         134.918         135.020         135.128         135.235         135.337    
          135.437         135.538         135.638         135.740         135.847         135.959         136.077         136.201         136.330         136.465    
          136.605         136.747         136.892         137.037         137.182         137.327         137.469         137.607         137.744         137.885    
          138.027         138.171         138.317         138.469         138.627         138.789         138.954         139.134         139.325         139.504    
          139.669         139.827         139.977         140.125         140.272         140.414         140.543         140.644         140.703         133.681    
          133.692         133.706         133.721         133.739         133.758         133.780         133.803         133.827         133.853         133.880    
          133.908         133.937         133.967         133.999         134.032         134.068         134.105         134.145         134.186         134.228    
          134.273         134.320         134.368         134.419         134.473         134.528         134.585         134.644         134.706         134.772    
          134.821         134.860         134.829         134.867         134.925         135.017         135.117         135.220         135.320         135.419    
          135.519         135.618         135.719         135.825         135.938         136.060         136.188         136.321         136.461         136.606    
          136.753         136.902         137.051         137.199         137.346         137.488         137.625         137.762         137.903         138.046    
          138.190         138.339         138.494         138.652         138.812         138.974         139.150         139.339         139.516         139.677    
          139.828         139.974         140.118         140.260         140.399         140.524         140.622         140.680         133.702         133.715    
          133.730         133.748         133.767         133.788         133.811         133.836         133.862         133.889         133.918         133.948    
          133.979         134.012         134.047         134.084         134.123         134.164         134.207         134.251         134.298         134.346    
          134.396         134.448         134.502         134.557         134.614         134.673         134.734         134.777         134.804         134.786    
          134.817         134.839         134.876         134.850         134.884         134.936         135.019         135.112         135.211         135.309    
          135.407         135.506         135.605         135.706         135.812         135.904         135.955         135.896         135.954         136.023    
          136.078         136.017         136.081         136.180         136.318         136.463         136.612         136.764         136.917         137.069    
          137.220         137.367         137.509         137.646         137.781         137.920         138.064         138.211         138.361         138.515    
          138.672         138.828         138.987         139.161         139.351         139.530         139.689         139.837         139.979         140.120    
          140.259         140.394         140.514         140.610         140.666         133.726         133.741         133.757         133.776         133.797    
          133.819         133.844         133.871         133.899         133.928         133.959         133.992         134.026         134.063         134.101    
          134.142         134.184         134.229         134.274         134.322         134.371         134.422         134.475         134.529         134.585    
          134.642         134.700         134.759         134.799         134.829         134.812         134.839         134.861         134.894         134.874    
          134.902         134.932         134.962         134.939         134.973         135.028         135.116         135.212         135.309         135.405    
          135.504         135.603         135.704         135.787         135.832         135.785         135.838         135.893         135.953         135.896    
          135.956         136.017         136.084         136.020         136.087         136.155         136.212         136.155         136.221         136.324    
          136.473         136.626         136.781         136.936         137.091         137.242         137.389         137.530         137.666         137.801    
          137.940         138.085         138.233         138.382         138.533         138.686         138.841         139.000         139.174         139.365    
          139.547         139.705         139.851         139.992         140.131         140.268         140.400         140.518         140.611         140.665    
          133.753         133.768         133.786         133.806         133.829         133.854         133.880         133.908         133.938         133.970    
          134.004         134.040         134.078         134.118         134.160         134.204         134.250         134.297         134.346         134.396    
          134.448         134.501         134.556         134.612         134.669         134.726         134.784         134.843         134.906         134.952    
          134.985         134.964         134.995         135.026         135.061         135.038         135.073         135.110         135.149         135.121    
          135.160         135.202         135.243         135.212         135.253         135.297         135.337         135.306         135.347         135.392    
          135.435         135.403         135.446         135.493         135.535         135.504         135.546         135.592         135.634         135.603    
          135.646         135.692         135.734         135.703         135.746         135.791         135.845         135.806         135.853         135.903    
          135.964         135.915         135.976         136.027         136.094         136.040         136.105         136.162         136.232         136.173    
          136.243         136.343         136.491         136.646         136.804         136.961         137.114         137.266         137.413         137.551    
          137.686         137.822         137.962         138.108         138.259         138.408         138.557         138.705         138.857         139.016    
          139.188         139.376         139.560         139.724         139.871         140.013         140.153         140.287         140.417         140.532    
          140.622         140.676         133.781         133.798         133.818         133.840         133.864         133.890         133.919         133.949    
          133.982         134.016         134.053         134.093         134.134         134.178         134.224         134.271         134.319         134.369    
          134.421         134.473         134.527         134.582         134.638         134.695         134.752         134.810         134.869         134.932    
          135.000         135.076         135.161         135.251         135.347         135.447         135.548         135.647         135.747         135.856    
          135.936         135.993         135.958         136.011         136.057         136.120         136.081         136.137         136.189         136.261    
          136.209         136.279         136.336         136.397         136.350         136.417         136.520         136.676         136.833         136.990    
          137.143         137.294         137.438         137.574         137.708         137.844         137.986         138.135         138.289         138.440    
          138.586         138.731         138.879         139.038         139.210         139.391         139.574         139.743         139.895         140.040    
          140.180         140.314         140.441         140.553         140.640         140.694         133.812         133.831         133.852         133.876    
          133.902         133.930         133.960         133.993         134.029         134.067         134.107         134.150         134.196         134.243    
          134.292         134.342         134.393         134.445         134.498         134.554         134.609         134.665         134.722         134.778    
          134.837         134.898         134.962         135.033         135.110         135.196         135.289         135.387         135.488         135.590    
          135.690         135.792         135.902         136.021         136.147         136.236         136.303         136.259         136.329         136.372    
          136.440         136.400         136.456         136.561         136.714         136.870         137.025         137.177         137.325         137.466    
          137.600         137.733         137.870         138.014         138.167         138.323         138.475         138.621         138.765         138.912    
          139.069         139.236         139.412         139.592         139.763         139.921         140.070         140.212         140.346         140.472    
          140.583         140.670         140.722         133.846         133.866         133.889         133.914         133.942         133.973         134.006    
          134.042         134.081         134.123         134.167         134.214         134.263         134.313         134.365         134.417         134.470    
          134.525         134.581         134.637         134.694         134.750         134.807         134.867         134.930         134.997         135.070    
          135.149         135.238         135.334         135.434         135.536         135.639         135.740         135.846         135.960         136.084    
          136.170         136.222         136.196         136.259         136.290         136.357         136.323         136.385         136.471         136.614    
          136.762         136.914         137.067         137.217         137.361         137.500         137.633         137.765         137.901         138.047    
          138.203         138.360         138.513         138.663         138.809         138.957         139.108         139.269         139.441         139.619    
          139.789         139.948         140.101         140.245         140.381         140.508         140.620         140.709         140.761         133.883    
          133.905         133.929         133.957         133.987         134.020         134.056         134.096         134.138         134.184         134.233    
          134.284         134.335         134.389         134.443         134.497         134.553         134.610         134.667         134.724         134.782    
          134.840         134.900         134.966         135.036         135.112         135.194         135.285         135.385         135.487         135.591    
          135.695         135.800         135.910         136.030         136.157         136.238         136.296         136.275         136.330         136.360    
          136.424         136.396         136.456         136.537         136.674         136.815         136.964         137.114         137.261         137.405    
          137.542         137.675         137.807         137.943         138.089         138.245         138.403         138.559         138.712         138.860    
          139.007         139.155         139.310         139.478         139.650         139.819         139.979         140.133         140.281         140.420    
          140.549         140.663         140.753         140.805         133.923         133.946         133.973         134.003         134.036         134.072    
          134.112         134.155         134.202         134.253         134.305         134.359         134.414         134.469         134.526         134.584    
          134.641         134.699         134.757         134.816         134.876         134.939         135.006         135.080         135.159         135.245    
          135.340         135.442         135.550         135.659         135.765         135.870         135.982         136.109         136.240         136.364    
          136.440         136.499         136.474         136.532         136.607         136.736         136.873         137.017         137.165         137.312    
          137.454         137.591         137.726         137.860         137.999         138.146         138.298         138.452         138.611         138.765    
          138.913         139.060         139.206         139.359         139.520         139.687         139.853         140.014         140.169         140.319    
          140.462         140.594         140.710         140.802         140.854         133.966         133.992         134.021         134.054         134.090    
          134.130         134.174         134.222         134.274         134.327         134.383         134.440         134.498         134.557         134.616    
          134.676         134.735         134.795         134.855         134.917         134.983         135.054         135.132         135.216         135.307    
          135.407         135.515         135.632         135.745         135.850         135.949         136.067         136.201         136.333         136.452    
          136.521         136.578         136.557         136.612         136.680         136.801         136.932         137.073         137.219         137.366    
          137.510         137.648         137.787         137.925         138.067         138.213         138.357         138.506         138.663         138.816    
          138.965         139.114         139.262         139.412         139.570         139.731         139.893         140.053         140.209         140.359    
          140.504         140.639         140.759         140.853         140.905         134.014         134.042         134.074         134.110         134.150    
          134.195         134.243         134.296         134.351         134.408         134.468         134.529         134.590         134.651         134.713    
          134.775         134.837         134.900         134.965         135.035         135.112         135.196         135.287         135.384         135.490    
          135.610         135.735         135.851         135.955         136.060         136.184         136.311         136.435         136.544         136.605    
          136.659         136.642         136.694         136.756         136.869         136.994         137.132         137.277         137.425         137.571    
          137.716         137.861         138.002         138.143         138.280         138.416         138.562         138.716         138.870         139.022    
          139.172         139.320         139.469         139.622         139.779         139.938         140.096         140.251         140.402         140.548    
          140.686         140.809         140.904         140.956         134.067         134.098         134.133         134.173         134.218         134.266    
          134.319         134.376         134.436         134.497         134.561         134.625         134.689         134.754         134.819         134.884    
          134.951         135.021         135.098         135.181         135.273         135.372         135.479         135.598         135.731         135.862    
          135.986         136.094         136.203         136.320         136.432         136.543         136.644         136.694         136.742         136.734    
          136.780         136.832         136.938         137.060         137.197         137.343         137.495         137.647         137.800         137.945    
          138.082         138.214         138.343         138.480         138.629         138.782         138.933         139.080         139.228         139.334    
          139.397         139.353         139.431         139.482         139.546         139.513         139.577         139.633         139.699         139.664    
          139.729         139.788         139.855         139.817         139.883         139.944         140.010         139.970         140.035         140.097    
          140.164         140.122         140.187         140.250         140.317         140.270         140.344         140.401         140.466         140.420    
          140.492         140.548         140.612         140.567         140.636         140.732         140.857         140.954         141.007         134.125    
          134.160         134.199         134.243         134.292         134.345         134.403         134.464         134.528         134.595         134.662    
          134.730         134.798         134.866         134.936         135.007         135.084         135.167         135.259         135.360         135.470    
          135.593         135.728         135.871         136.009         136.135         136.243         136.347         136.458         136.562         136.663    
          136.745         136.786         136.826         136.823         136.860         136.905         137.007         137.131         137.272         137.422    
          137.577         137.732         137.885         138.024         138.153         138.281         138.415         138.558         138.703         138.805    
          138.866         138.827         138.900         138.947         139.010         138.980         139.041         139.094         139.156         139.126    
          139.188         139.241         139.303         139.273         139.336         139.384         139.461         139.420         139.483         139.590    
          139.742         139.893         140.044         140.195         140.297         140.368         140.323         140.389         140.443         140.516    
          140.471         140.536         140.591         140.662         140.618         140.680         140.738         140.795         140.755         140.819    
          140.903         141.000         141.052         134.190         134.228         134.272         134.320         134.373         134.432         134.495    
          134.561         134.630         134.701         134.773         134.845         134.917         134.990         135.067         135.151         135.244    
          135.345         135.457         135.581         135.719         135.869         136.017         136.153         136.273         136.381         136.490    
          136.598         136.690         136.771         136.808         136.833         136.844         136.876         136.866         136.900         136.906    
          136.930         136.973         137.076         137.208         137.353         137.507         137.661         137.815         137.963         138.093    
          138.218         138.352         138.492         138.588         138.646         138.611         138.682         138.724         138.782         138.758    
          138.816         138.859         138.931         138.895         138.954         139.056         139.206         139.355         139.506         139.659    
          139.808         139.955         140.103         140.250         140.395         140.541         140.685         140.780         140.843         140.801    
          140.858         140.909         140.956         140.924         140.975         141.036         141.082         134.262         134.304         134.351    
          134.404         134.463         134.527         134.596         134.667         134.742         134.818         134.894         134.971         135.049    
          135.133         135.226         135.327         135.437         135.561         135.700         135.852         136.006         136.150         136.282    
          136.404         136.516         136.624         136.716         136.794         136.861         136.890         136.917         136.921         136.947    
          136.973         137.046         137.159         137.297         137.445         137.595         137.741         137.890         138.031         138.158    
          138.286         138.422         138.518         138.572         138.542         138.609         138.644         138.715         138.680         138.737    
          138.836         138.980         139.128         139.281         139.434         139.586         139.735         139.882         140.025         140.169    
          140.311         140.450         140.588         140.726         140.859         140.942         140.993         140.956         141.001         141.041    
          141.068         141.050         141.078         141.091         141.101         134.340         134.387         134.439         134.497         134.562    
          134.632         134.707         134.785         134.865         134.947         135.029         135.114         135.206         135.306         135.416    
          135.538         135.675         135.824         135.977         136.130         136.275         136.409         136.532         136.640         136.737    
          136.819         136.887         136.945         136.966         136.989         137.004         137.029         137.020         137.049         137.061    
          137.091         137.134         137.251         137.391         137.535         137.678         137.823         137.967         138.100         138.226    
          138.355         138.489         138.579         138.644         138.606         138.672         138.763         138.915         139.065         139.215    
          139.368         139.522         139.674         139.822         139.965         140.103         140.241         140.374         140.504         140.633    
          140.759         140.880         140.989         141.075         141.124         134.426         134.477         134.535         134.601         134.672    
          134.750         134.832         134.917         135.004         135.093         135.187         135.287         135.396         135.516         135.648    
          135.794         135.948         136.105         136.260         136.403         136.533         136.650         136.752         136.842         136.916    
          136.979         137.034         137.085         137.111         137.143         137.151         137.186         137.234         137.353         137.487    
          137.626         137.769         137.907         138.044         138.172         138.298         138.428         138.516         138.572         138.544    
          138.615         138.644         138.714         138.688         138.746         138.846         139.006         139.164         139.317         139.468    
          139.621         139.772         139.917         140.054         140.186         140.314         140.437         140.555         140.670         140.782    
          140.888         140.988         141.074         141.125         134.521         134.578         134.644         134.717         134.798         134.885    
          134.975         135.069         135.166         135.268         135.377         135.495         135.623         135.766         135.921         136.079    
          136.239         136.393         136.535         136.661         136.771         136.868         136.950         137.019         137.079         137.132    
          137.186         137.211         137.244         137.260         137.295         137.294         137.341         137.345         137.392         137.457    
          137.585         137.722         137.857         137.991         138.079         138.132         138.109         138.175         138.203         138.255    
          138.243         138.296         138.327         138.383         138.368         138.425         138.457         138.511         138.501         138.557    
          138.585         138.658         138.633         138.692         138.790         138.949         139.112         139.274         139.426         139.578    
          139.729         139.877         140.017         140.147         140.270         140.388         140.498         140.601         140.699         140.793    
          140.884         140.970         141.066         141.120         134.628         134.694         134.769         134.853         134.945         135.042    
          135.143         135.249         135.360         135.477         135.604         135.743         135.895         136.055         136.217         136.381    
          136.535         136.674         136.794         136.899         136.989         137.064         137.131         137.189         137.243         137.300    
          137.366         137.407         137.453         137.459         137.508         137.515         137.567         137.567         137.620         137.689    
          137.819         137.903         137.957         137.941         138.010         138.031         138.083         138.080         138.132         138.152    
          138.218         138.202         138.253         138.333         138.466         138.602         138.743         138.898         139.058         139.224    
          139.387         139.541         139.694         139.842         139.985         140.118         140.240         140.354         140.458         140.552    
          140.638         140.717         140.791         140.871         140.924         134.751         134.828         134.917         135.013         135.116    
          135.225         135.340         135.460         135.588         135.726         135.874         136.032         136.198         136.367         136.533    
          136.687         136.819         136.931         137.030         137.113         137.186         137.250         137.308         137.362         137.423    
          137.491         137.584         137.636         137.687         137.696         137.750         137.752         137.803         137.815         137.867    
          137.874         137.927         137.936         137.989         137.997         138.065         138.059         138.110         138.184         138.308    
          138.435         138.572         138.707         138.853         139.008         139.168         139.336         139.503         139.659         139.809    
          139.953         140.089         140.214         140.328         140.431         140.522         140.598         140.664         140.723         140.767    
          134.898         134.990         135.090         135.200         135.317         135.441         135.571         135.709         135.857         136.012    
          136.178         136.350         136.525         136.693         136.843         136.967         137.074         137.166         137.244         137.313    
          137.376         137.434         137.495         137.562         137.639         137.735         137.837         137.949         138.070         138.192    
          138.315         138.433         138.557         138.687         138.819         138.966         139.120         139.278         139.448         139.615    
          139.768         139.915         140.054         140.181         140.297         140.403         140.498         140.572         140.626         140.670    
          135.072         135.176         135.292         135.417         135.551         135.690         135.837         135.993         136.157         136.330    
          136.508         136.690         136.858         137.001         137.118         137.219         137.304         137.376         137.441         137.504    
          137.571         137.643         137.721         137.816         137.921         138.026         138.137         138.251         138.363         138.471    
          138.578         138.691         138.810         138.936         139.079         139.227         139.377         139.539         139.704         139.855    
          139.998         140.132         140.251         140.353         140.453         140.541         140.598         135.272         135.394         135.529    
          135.671         135.815         135.969         136.131         136.303         136.483         136.669         136.854         137.019         137.154    
          137.264         137.356         137.432         137.498         137.563         137.630         137.707         137.796         137.903         138.034    
          138.163         138.275         138.380         138.474         138.557         138.640         138.724         138.818         138.921         139.040    
          139.173         139.309         139.444         139.587         139.754         139.906         140.048         140.178         140.286         140.358    
          135.510         135.651         135.796         135.942         136.097         136.263         136.441         136.627         136.817         137.001    
          137.163         137.293         137.394         137.475         137.541         137.597         137.657         137.721         137.806         137.919    
          138.070         138.258         138.420         138.548         138.633         138.681         138.723         138.771         138.829         138.904    
          138.995         139.105         139.229         139.354         139.468         139.553         135.782         135.923         136.065         136.216    
          136.381         136.562         136.750         136.941         137.125         137.283         137.407         137.499         137.567         137.620    
          137.656         137.698         136.052         136.183         136.317         136.476         136.658         136.846         137.039         137.220    
          137.373         137.493         137.573         137.623         137.662         136.290         136.380         136.538         136.720         136.903    
          137.099         137.282         137.429         137.540         137.605    

 HEAD WILL BE SAVED ON UNIT 1020 AT END OF TIME STEP   48, STRESS PERIOD    2

 SFR PACKAGE (SFR) STAGES FOR EACH CONTROL VOLUME   PERIOD      2   STEP       48
 -------------------------------------------------------------------------------------------------------------
                                                                                      STREAMBED    STREAMBED  
   NUMBER   CELLID                  STAGE        DEPTH        WIDTH       GWF HEAD   CONDUCTANCE    GRADIENT  
 -------------------------------------------------------------------------------------------------------------
     1      (1,2565)              143.61       0.0000       0.0000       141.71       1016.1       1.0000     
     2      (1,2563)              143.50       0.0000       0.0000       141.48       319.68       1.0000     
     3      (1,2561)              143.45       0.0000       0.0000       141.47       615.17       1.0000     
     4      (1,2560)              143.45       0.0000       0.0000       141.34       955.58       1.0000     
     5      (1,2557)              143.45       0.0000       0.0000       141.21       490.75       1.0000     
     6      (1,2485)              143.45       0.0000       0.0000       141.18       478.66       1.0000     
     7      (1,2484)              143.42       0.0000       0.0000       141.08       1093.8       1.0000     
     8      (1,2481)              143.33       0.0000       0.0000       140.98       60.480       1.0000     
     9      (1,2479)              143.33       0.0000       0.0000       140.96       862.27       1.0000     
     10     (1,2478)              143.33       0.0000       0.0000       140.87       978.05       1.0000     
     11     (1,2399)              143.33       0.0000       0.0000       140.84       371.52       1.0000     
     12     (1,2396)              143.33       0.0000       0.0000       140.74       584.06       1.0000     
     13     (1,2394)              143.28       0.0000       0.0000       140.72       998.78       1.0000     
     14     (1,2393)              143.25       0.0000       0.0000       140.64       98.496       1.0000     
     15     (1,2304)              143.14       0.0000       0.0000       140.61       917.57       1.0000     
     16     (1,2301)              143.14       0.0000       0.0000       140.52       910.66       1.0000     
     17     (1,2300)              143.14       0.0000       0.0000       140.44       65.664       1.0000     
     18     (1,2389)              143.14       0.0000       0.0000       140.47       812.16       1.0000     
     19     (1,2386)              143.07       0.0000       0.0000       140.38       870.91       1.0000     
     20     (1,2385)              143.07       0.0000       0.0000       140.30       278.21       1.0000     
     21     (1,2296)              143.07       0.0000       0.0000       140.27       603.07       1.0000     
     22     (1,2293)              143.07       0.0000       0.0000       140.17       893.38       1.0000     
     23     (1,2292)              143.07       0.0000       0.0000       140.11       884.74       1.0000     
     24     (1,2289)              143.07       0.0000       0.0000       140.01       910.66       1.0000     
     25     (1,2288)              143.07       0.0000       0.0000       139.94       153.79       1.0000     
     26     (1,2286)              143.03       0.0000       0.0000       139.92       781.06       1.0000     
     27     (1,2283)              143.03       0.0000       0.0000       139.83       889.92       1.0000     
     28     (1,2282)              143.03       0.0000       0.0000       139.77       877.82       1.0000     
     29     (1,2279)              143.03       0.0000       0.0000       139.68       884.74       1.0000     
     30     (1,2278)              143.03       0.0000       0.0000       139.62       896.83       1.0000     
     31     (1,2275)              143.03       0.0000       0.0000       139.54       172.80       1.0000     
     32     (1,2277)              143.03       0.0000       0.0000       139.56       730.94       1.0000     
     33     (1,2276)              143.03       0.0000       0.0000       139.49       908.93       1.0000     
     34     (1,2273)              143.03       0.0000       0.0000       139.41       891.65       1.0000     
     35     (1,2272)              143.03       0.0000       0.0000       139.33       454.46       1.0000     
     36     (1,2376)              143.03       0.0000       0.0000       139.36       442.37       1.0000     
     37     (1,2373)              143.03       0.0000       0.0000       139.27       881.28       1.0000     
     38     (1,2372)              143.03       0.0000       0.0000       139.21       881.28       1.0000     
     39     (1,2369)              143.01       0.0000       0.0000       139.12       902.02       1.0000     
     40     (1,2368)              142.55       0.0000       0.0000       139.06       806.98       1.0000     
     41     (1,2370)              142.55       0.0000       0.0000       139.08       82.944       1.0000     
     42     (1,2367)              142.05       0.0000       0.0000       138.99       902.02       1.0000     
     43     (1,2366)              141.75       0.0000       0.0000       138.94       898.56       1.0000     
     44     (1,2363)              141.22       0.0000       0.0000       138.86       876.10       1.0000     
     45     (1,2362)              140.98       0.0000       0.0000       138.78       926.21       1.0000     
     46     (1,2462)              140.62       0.0000       0.0000       138.80       5.1840       1.0000     
     47     (1,2459)              140.43       0.0000       0.0000       138.72       1069.6       1.0000     
     48     (1,2458)              140.43       0.0000       0.0000       138.67       362.88       1.0000     
     49     (1,2460)              140.05       0.0000       0.0000       138.69       713.66       1.0000     
     50     (1,2457)              140.05       0.0000       0.0000       138.62       705.02       1.0000     
     51     (1,2538)              139.72       0.0000       0.0000       138.65       412.99       1.0000     
     52     (1,2537)              139.72       0.0000       0.0000       138.58       983.23       1.0000     
     53     (1,2539)              139.56       0.0000       0.0000       138.62       190.08       0.94409    
     54     (1,2536)              139.54       0.0000       0.0000       138.55       886.46       0.98853    
     55     (1,2614)              139.39       0.0000       0.0000       138.58       635.90       0.80727    
     56     (1,2613)              139.36       0.0000       0.0000       138.52       435.46       0.84429    
     57     (1,2615)              139.20       0.0000       0.0000       138.54       955.58       0.65809    
     58     (1,2682)              139.02       0.0000       0.0000       138.58       884.74       0.44250    
     59     (1,2684)              138.96       0.0000       0.0000       138.61       539.14       0.34584    
     60     (1,2681)              138.89       0.0000       0.0000       138.55       447.55       0.34377    
     61     (1,2762)              138.89       0.0000       0.0000       138.58       857.09       0.30904    
     62     (1,2761)              138.84       0.0000       0.0000       138.51       364.61       0.32503    
     63     (1,2763)              138.84       0.0000       0.0000       138.55       627.26       0.28775    
     64     (1,2760)              138.65       0.0000       0.0000       138.48       978.05       0.17188    
     65     (1,2759)              138.58       0.0000       0.0000       138.42       883.01       0.15629    
     66     (1,2756)              138.49       0.0000       0.0000       138.35       903.74       0.13925    
     67     (1,2755)              138.33       0.0000       0.0000       138.30       896.83       3.35906E-02
     68     (1,2752)              138.33       0.0000       0.0000       138.23       910.66       0.10197    
     69     (1,2751)              138.33       0.0000       0.0000       138.17       926.21       0.15642    
     70     (1,2748)              138.33       0.0000       0.0000       138.11       38.016       0.22090    
     71     (1,2831)              138.33       0.0000       0.0000       138.14       926.21       0.18516    
     72     (1,2830)              138.33       0.0000       0.0000       138.08       927.94       0.25182    
     73     (1,2827)              138.33       0.0000       0.0000       138.01       336.96       0.32122    
     74     (1,2829)              138.33       0.0000       0.0000       138.05       585.79       0.27800    
     75     (1,2828)              138.33       0.0000       0.0000       138.00       910.66       0.33085    
     76     (1,2825)              138.33       0.0000       0.0000       137.93       910.66       0.39541    
     77     (1,2824)              138.33       0.0000       0.0000       137.87       321.41       0.46024    
     78     (1,2895)              138.33       0.0000       0.0000       137.92       589.25       0.40857    
     79     (1,2892)              138.33       0.0000       0.0000       137.85       900.29       0.48273    
     80     (1,2891)              138.33       0.0000       0.0000       137.80       927.94       0.52782    
     81     (1,2888)              138.33       0.0000       0.0000       137.73       872.64       0.59751    
     82     (1,2887)              138.33       0.0000       0.0000       137.69       1164.7       0.64106    
     83     (1,2884)              138.33       0.0000       0.0000       137.64       190.08       0.69473    
     84     (1,2819)              138.33       0.0000       0.0000       137.58       1031.6       0.75069    
     85     (1,2818)              138.24       0.0000       0.0000       137.53       190.08       0.70676    
     86     (1,2816)              138.24       0.0000       0.0000       137.49       1031.6       0.75024    
     87     (1,2813)              137.98       0.0000       0.0000       137.42       190.08       0.55512    
     88     (1,2739)              137.98       0.0000       0.0000       137.37       1031.6       0.61277    
     89     (1,2738)              137.56       0.0000       0.0000       137.32       190.08       0.23759    
     90     (1,2736)              137.56       0.0000       0.0000       137.27       1031.6       0.28909    
     91     (1,2733)              137.21       0.0000       0.0000       137.21       190.08       2.48135E-04
     92     (1,2667)              137.21       0.0000       0.0000       137.14       1031.6       6.77374E-02
     93     (1,2666)              137.20       0.0000       0.0000       137.09       190.08       0.11063    
     94     (1,2664)              137.11       0.0000       0.0000       137.02       1099.0       8.54836E-02
     95     (1,2600)              136.90       1.79822E-03  2.0000       136.92       421.63      -2.29750E-02
     96     (1,2597)              136.64       7.97720E-03  2.0000       136.79       644.54      -0.14995    
     97     (1,2595)              136.64       1.41592E-02  2.0000       136.74       981.50      -9.09056E-02
     98     (1,2520)              136.65       1.71938E-02  2.0000       136.74       297.22      -8.79535E-02
     99     (1,2519)              136.65       1.87779E-02  2.0000       136.70       803.52      -4.96290E-02
    100     (1,2517)              136.65       2.03753E-02  2.0000       136.68       983.23      -3.10875E-02
    101     (1,2436)              136.65       2.12999E-02  2.0000       136.66       1054.1      -1.13319E-02
    102     (1,2434)              136.65       2.14726E-02  2.0000       136.65       632.45       6.11308E-03
    103     (1,2435)              136.65       2.16818E-02  2.0000       136.66       1263.2      -1.08526E-02
    104     (1,2438)              136.65       2.23692E-02  2.0000       136.71       336.96      -5.66441E-02
    105     (1,2344)              136.65       2.30115E-02  2.0000       136.67       910.66      -1.33608E-02
    106     (1,2342)              136.65       2.30735E-02  2.0000       136.64       615.17       1.48228E-02
    107     (1,2343)              136.65       2.31341E-02  2.0000       136.68       457.92      -2.64376E-02
    108     (1,2251)              136.62       2.32598E-02  2.0000       136.62       1016.1       5.80683E-03
    109     (1,2249)              136.51       2.36407E-02  2.0000       136.54       864.00      -2.87593E-02
    110     (1,2183)              136.39       2.52751E-02  2.0000       136.45       934.85      -6.28533E-02
    111     (1,2181)              136.33       2.75210E-02  2.0000       136.40       864.00      -7.19110E-02
    112     (1,2114)              136.33       2.92543E-02  2.0000       136.37       872.64      -4.10199E-02
    113     (1,2112)              136.33       3.02454E-02  2.0000       136.36       867.46      -2.53384E-02
    114     (1,2044)              136.33       3.06196E-02  2.0000       136.33       430.27      -3.88767E-04
    115     (1,2043)              136.33       3.02674E-02  2.0000       136.29       546.05       3.84885E-02
    116     (1,2041)              136.31       2.91292E-02  2.0000       136.26       1021.2       4.43170E-02
    117     (1,1972)              136.31       2.80127E-02  2.0000       136.19       148.61       0.12174    
    118     (1,1969)              136.08       2.80825E-02  2.0000       136.10       943.49      -2.33255E-02
    119     (1,1967)              136.08       2.82356E-02  2.0000       136.05       508.03       2.63876E-02
    120     (1,1966)              136.01       2.79580E-02  2.0000       136.00       565.06       3.84606E-03
    121     (1,1893)              135.93       2.79303E-02  2.0000       135.93       855.36      -7.28765E-04
    122     (1,1894)              135.93       2.81051E-02  2.0000       135.97       200.45      -4.57523E-02
    123     (1,1892)              135.93       2.79225E-02  2.0000       135.91       888.19       2.18402E-02
    124     (1,1895)              135.92       2.78751E-02  2.0000       135.94       888.19      -1.88587E-02
    125     (1,1896)              135.92       2.90183E-02  2.0000       135.98       739.58      -6.48101E-02
    126     (1,1819)              135.92       2.97864E-02  2.0000       135.90       205.63       1.70579E-02
    127     (1,1822)              135.91       3.04290E-02  2.0000       135.96       924.48      -4.46342E-02
    128     (1,1820)              135.67       3.34357E-02  2.0000       135.83       907.20      -0.15704    
    129     (1,1745)              135.68       3.75965E-02  2.0000       135.79       1152.6      -0.11319    
    130     (1,1742)              135.60       4.09009E-02  2.0000       135.71       888.19      -0.11398    
    131     (1,1741)              135.60       4.31428E-02  2.0000       135.67       926.21      -6.83268E-02
    132     (1,1738)              135.52       4.51800E-02  2.0000       135.62       910.66      -0.10020    
    133     (1,1737)              135.52       4.68422E-02  2.0000       135.61       433.73      -8.83715E-02
    134     (1,1735)              135.49       4.79642E-02  2.0000       135.55       860.54      -5.91538E-02
    135     (1,1732)              135.49       4.87243E-02  2.0000       135.53       229.82      -4.49812E-02
    136     (1,1653)              135.43       4.93997E-02  2.0000       135.47       993.60      -4.49059E-02
    137     (1,1651)              135.41       5.03991E-02  2.0000       135.45       1054.1      -3.56912E-02
    138     (1,1654)              135.41       5.14406E-02  2.0000       135.47       870.91      -5.65569E-02
    139     (1,1655)              135.37       5.33448E-02  2.0000       135.49       974.59      -0.11556    
    140     (1,1658)              135.38       5.52747E-02  2.0000       135.58       273.02      -0.20296    
    141     (1,1548)              135.38       5.74909E-02  2.0000       135.54       903.74      -0.15761    
    142     (1,1546)              135.38       6.02163E-02  2.0000       135.57       571.97      -0.18870    
    143     (1,1543)              135.38       6.22783E-02  2.0000       135.50       746.50      -0.11600    
    144     (1,1453)              135.38       6.38046E-02  2.0000       135.56       342.14      -0.17591    
    145     (1,1452)              135.39       6.54202E-02  2.0000       135.49       914.11      -0.10695    
    146     (1,1449)              135.39       6.71433E-02  2.0000       135.47       914.11      -8.05055E-02
    147     (1,1448)              135.39       6.81112E-02  2.0000       135.47       302.40      -7.92001E-02
    148     (1,1538)              135.35       6.88307E-02  2.0000       135.42       668.74      -7.35192E-02
    149     (1,1535)              135.35       6.97923E-02  2.0000       135.40       969.41      -5.09061E-02
    150     (1,1537)              135.33       7.07547E-02  2.0000       135.38       955.58      -5.24909E-02
    151     (1,1647)              135.33       7.16822E-02  2.0000       135.38       910.66      -5.11642E-02
    152     (1,1649)              135.33       7.27266E-02  2.0000       135.40       931.39      -6.80275E-02
    153     (1,1648)              135.33       7.37199E-02  2.0000       135.38       896.83      -4.70565E-02
    154     (1,1645)              135.28       7.45971E-02  2.0000       135.34       940.03      -5.51066E-02
    155     (1,1644)              135.21       7.56587E-02  2.0000       135.30       648.00      -9.71554E-02
    156     (1,1642)              135.14       7.68141E-02  2.0000       135.29       421.63      -0.14983    
    157     (1,1639)              135.14       7.82683E-02  2.0000       135.24       933.12      -0.10436    
    158     (1,1638)              135.14       7.95151E-02  2.0000       135.24       400.90      -0.10445    
    159     (1,1640)              135.14       8.04377E-02  2.0000       135.25       587.52      -0.10571    
    160     (1,1637)              135.14       8.16090E-02  2.0000       135.22       910.66      -7.80310E-02
    161     (1,1636)              135.14       8.27505E-02  2.0000       135.21       872.64      -6.86897E-02
    162     (1,1633)              135.14       8.36749E-02  2.0000       135.20       865.73      -5.43314E-02
    163     (1,1632)              135.13       8.44683E-02  2.0000       135.19       870.91      -5.21341E-02
    164     (1,1629)              135.14       8.51195E-02  2.0000       135.17       874.37      -3.53551E-02
    165     (1,1628)              135.14       8.55396E-02  2.0000       135.16       865.73      -2.13969E-02
    166     (1,1625)              135.09       8.59514E-02  2.0000       135.12       870.91      -3.45516E-02
    167     (1,1624)              135.06       8.64992E-02  2.0000       135.10       879.55      -3.95955E-02
    168     (1,1621)              135.06       8.69412E-02  2.0000       135.08       881.28      -2.01423E-02
    169     (1,1620)              135.06       8.71497E-02  2.0000       135.07       900.29      -7.89589E-03
    170     (1,1617)              135.06       8.71491E-02  2.0000       135.04       487.30       1.47386E-02
    171     (1,1615)              134.99       8.72130E-02  2.0000       135.02       461.38      -3.21221E-02
    172     (1,1614)              134.99       8.74186E-02  2.0000       135.00       946.94      -1.02834E-02
    173     (1,1611)              134.99       8.74305E-02  2.0000       134.97       589.25       1.41078E-02
    174     (1,1525)              134.98       8.72842E-02  2.0000       134.95       406.08       2.25851E-02
    175     (1,1524)              134.86       8.75023E-02  2.0000       134.89       965.95      -3.64860E-02
    176     (1,1521)              134.86       8.78664E-02  2.0000       134.87       577.15      -1.45462E-02
    177     (1,1519)              134.86       8.79828E-02  2.0000       134.87       428.54      -1.30109E-02
    178     (1,1518)              134.86       8.79948E-02  2.0000       134.85       905.47       4.56168E-03
    179     (1,1515)              134.86       8.78561E-02  2.0000       134.83       539.14       2.32180E-02
    180     (1,1431)              134.86       8.75506E-02  2.0000       134.83       864.00       2.79008E-02
    181     (1,1429)              134.86       8.70609E-02  2.0000       134.81       774.14       4.44361E-02
    182     (1,1432)              134.82       8.68091E-02  2.0000       134.83       502.85      -8.73465E-03
    183     (1,1353)              134.81       8.68216E-02  2.0000       134.80       907.20       3.20442E-03
    184     (1,1351)              134.81       8.66941E-02  2.0000       134.79       883.01       1.38844E-02
    185     (1,1274)              134.81       8.63030E-02  2.0000       134.77       902.02       3.78996E-02
    186     (1,1272)              134.80       8.54845E-02  2.0000       134.73       900.29       6.94814E-02
    187     (1,1194)              134.47       8.57330E-02  2.0000       134.56       927.94      -9.89942E-02
    188     (1,1192)              134.36       8.74934E-02  2.0000       134.49       853.63      -0.13750    
    189     (1,1189)              134.36       8.85912E-02  2.0000       134.48       122.69      -0.11843    
    190     (1,1111)              134.26       8.97498E-02  2.0000       134.39       991.87      -0.12691    
    191     (1,1109)              134.26       9.14386E-02  2.0000       134.39       628.99      -0.12871    
    192     (1,1108)              134.26       9.24095E-02  2.0000       134.37       361.15      -0.10830    
    193     (1,1030)              134.26       9.33373E-02  2.0000       134.34       979.78      -7.79954E-02
    194     (1,1028)              134.26       9.45400E-02  2.0000       134.35       889.92      -8.36874E-02
    195     (1,950)               134.27       9.52950E-02  2.0000       134.38       186.62      -0.11208    
    196     (1,947)               134.17       9.62072E-02  2.0000       134.28       813.89      -0.11672    
    197     (1,945)               134.17       9.75196E-02  2.0000       134.30       546.05      -0.13382    
    198     (1,944)               134.17       9.86751E-02  2.0000       134.26       848.45      -8.97578E-02
    199     (1,866)               134.17       9.95889E-02  2.0000       134.29       354.24      -0.12051    
    200     (1,863)               134.17       0.10038      2.0000       134.25       803.52      -7.60089E-02
    201     (1,861)               134.17       0.10127      2.0000       134.26       608.26      -9.18825E-02
    202     (1,860)               134.17       0.10196      2.0000       134.24       521.86      -6.78824E-02
    203     (1,782)               134.17       0.10267      2.0000       134.24       822.53      -7.12161E-02
    204     (1,779)               134.16       0.10324      2.0000       134.23       252.29      -6.77114E-02
    205     (1,777)               134.16       0.10388      2.0000       134.23       1130.1      -6.11278E-02
    206     (1,700)               134.16       0.10440      2.0000       134.26       12.096      -9.82470E-02
    207     (1,699)               134.16       0.10479      2.0000       134.21       1138.8      -4.50288E-02
    208     (1,697)               134.17       0.10526      2.0000       134.23       169.34      -6.95246E-02
    209     (1,694)               134.17       0.10551      2.0000       134.19       927.94      -2.44050E-02
    210     (1,618)               134.10       0.10598      2.0000       134.18       483.84      -8.47593E-02
    211     (1,617)               134.10       0.10650      2.0000       134.15       578.88      -5.14294E-02
    212     (1,615)               134.10       0.10702      2.0000       134.15       855.36      -4.82433E-02
    213     (1,612)               134.10       0.10739      2.0000       134.12       361.15      -2.54547E-02
    214     (1,537)               134.10       0.10750      2.0000       134.10       936.58      -6.80845E-03
    215     (1,535)               133.93       0.10815      2.0000       134.06       627.26      -0.13189    
    216     (1,534)               133.93       0.10943      2.0000       134.03       976.32      -9.59682E-02
    217     (1,531)               133.93       0.11011      2.0000       134.03       15.552      -0.10465    
    218     (1,457)               133.93       0.11065      2.0000       134.00       1042.0      -7.00456E-02
    219     (1,455)               133.93       0.11167      2.0000       134.00       1024.7      -6.86125E-02
    220     (1,382)               133.93       0.11245      2.0000       134.04       388.80      -0.10284    
    221     (1,381)               133.93       0.11314      2.0000       134.00       927.94      -6.33831E-02
    222     (1,378)               133.93       0.11385      2.0000       133.98       889.92      -4.71771E-02
    223     (1,377)               133.93       0.11440      2.0000       133.97       919.30      -3.97000E-02
    224     (1,375)               133.93       0.11473      2.0000       134.00       160.70      -6.12818E-02
    225     (1,372)               133.94       0.11505      2.0000       133.97       1038.5      -3.52360E-02
    226     (1,371)               133.94       0.11537      2.0000       133.97       326.59      -3.00246E-02
    227     (1,299)               133.94       0.11560      2.0000       133.97       701.57      -3.36819E-02
    228     (1,296)               133.94       0.11588      2.0000       133.95       907.20      -1.76346E-02
    229     (1,294)               133.94       0.11601      2.0000       133.97       119.23      -2.91573E-02
    230     (1,293)               133.94       0.11612      2.0000       133.95       921.02      -1.22719E-02
    231     (1,290)               133.94       0.11618      2.0000       133.93       884.74       2.94993E-03
    232     (1,289)               133.94       0.11607      2.0000       133.92       908.93       1.44631E-02
    233     (1,286)               133.94       0.11594      2.0000       133.89       114.05       4.29838E-02
    234     (1,250)               133.94       0.11568      2.0000       133.89       789.70       4.14330E-02
    235     (1,249)               133.93       0.11494      2.0000       133.86       979.78       7.51884E-02
    236     (1,246)               133.70       0.11454      2.0000       133.75       387.07      -4.14025E-02
    237     (1,244)               133.62       0.11493      2.0000       133.69       644.54      -6.21698E-02
    238     (1,243)               133.40       0.11621      2.0000       133.58       786.24      -0.18280    
    239     (1,209)               133.40       0.11769      2.0000       133.58       402.62      -0.17750    
    240     (1,206)               133.40       0.11887      2.0000       133.52       819.07      -0.12357    
    241     (1,204)               133.40       0.11993      2.0000       133.54       402.62      -0.13753    
    242     (1,203)               133.40       0.12088      2.0000       133.50       819.07      -0.10344    
    243     (1,171)               133.40       0.12178      2.0000       133.52       399.17      -0.12293    
    244     (1,168)               133.40       0.12270      2.0000       133.49       1017.8      -8.69357E-02
    245     (1,166)               133.40       0.12334      2.0000       133.53       57.024      -0.13000    
    246     (1,165)               133.40       0.12400      2.0000       133.48       1164.7      -7.97409E-02
    247     (1,135)               133.40       0.12466      2.0000       133.53       57.024      -0.12804    
    248     (1,132)               133.41       0.12528      2.0000       133.48       1164.7      -7.39178E-02
    249     (1,130)               133.41       0.12589      2.0000       133.53       57.024      -0.11933    
    250     (1,129)               133.41       0.12647      2.0000       133.48       1164.7      -7.03144E-02
    251     (1,101)               133.41       0.12705      2.0000       133.52       57.024      -0.11769    
    252     (1,98)                133.41       0.12760      2.0000       133.48       1164.7      -6.74486E-02
    253     (1,96)                133.41       0.12816      2.0000       133.52       57.024      -0.11170    
    254     (1,95)                133.41       0.12869      2.0000       133.47       1164.7      -6.48541E-02
    255     (1,69)                133.41       0.12921      2.0000       133.52       57.024      -0.11183    
    256     (1,66)                133.41       0.12972      2.0000       133.47       1178.5      -6.11139E-02
    257     (1,65)                133.41       0.13020      2.0000       133.49       48.384      -7.69583E-02
    258     (1,63)                133.40       0.13066      2.0000       133.46       1061.0      -6.39428E-02
    259     (1,60)                133.40       0.13121      2.0000       133.46       288.58      -6.09351E-02
    260     (1,36)                133.28       0.13209      2.0000       133.41       934.85      -0.12951    
    261     (1,35)                133.28       0.13318      2.0000       133.43       357.70      -0.14434    
    262     (1,33)                133.28       0.13413      2.0000       133.42       708.48      -0.13875    
    263     (1,30)                133.29       0.13533      2.0000       133.43       634.18      -0.14785    
    264     (1,8)                 133.29       0.13660      2.0000       133.47       589.25      -0.18743    
    265     (1,7)                 133.29       0.13810      2.0000       133.50       634.18      -0.20699    
    266     (1,5)                 133.29       0.13905      2.0000       133.62       69.120      -0.32940    
 -------------------------------------------------------------------------------------------------------------



 SFR PACKAGE - SUMMARY OF FLOWS FOR EACH CONTROL VOLUME   PERIOD      2   STEP       48
 ------------------------------------------------------------------------------------------------------------------------------------------------------------------------------
                                                                                                                                                                     PERCENT   
   NUMBER   CELLID                  INFLOW      OUTFLOW        GWF        RAINFALL   EVAPORATION     RUNOFF     EXT INFLOW  EXT OUTFLOW    STORAGE      IN - OUT    DIFFERENCE 
 ------------------------------------------------------------------------------------------------------------------------------------------------------------------------------
     1      (1,2565)              0.0000       0.0000       0.0000       0.0000       0.0000       0.0000       0.0000       0.0000       0.0000       0.0000       0.0000     
     2      (1,2563)              0.0000       0.0000       0.0000       0.0000       0.0000       0.0000       0.0000       0.0000       0.0000       0.0000       0.0000     
     3      (1,2561)              0.0000       0.0000       0.0000       0.0000       0.0000       0.0000       0.0000       0.0000       0.0000       0.0000       0.0000     
     4      (1,2560)              0.0000       0.0000       0.0000       0.0000       0.0000       0.0000       0.0000       0.0000       0.0000       0.0000       0.0000     
     5      (1,2557)              0.0000       0.0000       0.0000       0.0000       0.0000       0.0000       0.0000       0.0000       0.0000       0.0000       0.0000     
     6      (1,2485)              0.0000       0.0000       0.0000       0.0000       0.0000       0.0000       0.0000       0.0000       0.0000       0.0000       0.0000     
     7      (1,2484)              0.0000       0.0000       0.0000       0.0000       0.0000       0.0000       0.0000       0.0000       0.0000       0.0000       0.0000     
     8      (1,2481)              0.0000       0.0000       0.0000       0.0000       0.0000       0.0000       0.0000       0.0000       0.0000       0.0000       0.0000     
     9      (1,2479)              0.0000       0.0000       0.0000       0.0000       0.0000       0.0000       0.0000       0.0000       0.0000       0.0000       0.0000     
     10     (1,2478)              0.0000       0.0000       0.0000       0.0000       0.0000       0.0000       0.0000       0.0000       0.0000       0.0000       0.0000     
     11     (1,2399)              0.0000       0.0000       0.0000       0.0000       0.0000       0.0000       0.0000       0.0000       0.0000       0.0000       0.0000     
     12     (1,2396)              0.0000       0.0000       0.0000       0.0000       0.0000       0.0000       0.0000       0.0000       0.0000       0.0000       0.0000     
     13     (1,2394)              0.0000       0.0000       0.0000       0.0000       0.0000       0.0000       0.0000       0.0000       0.0000       0.0000       0.0000     
     14     (1,2393)              0.0000       0.0000       0.0000       0.0000       0.0000       0.0000       0.0000       0.0000       0.0000       0.0000       0.0000     
     15     (1,2304)              0.0000       0.0000       0.0000       0.0000       0.0000       0.0000       0.0000       0.0000       0.0000       0.0000       0.0000     
     16     (1,2301)              0.0000       0.0000       0.0000       0.0000       0.0000       0.0000       0.0000       0.0000       0.0000       0.0000       0.0000     
     17     (1,2300)              0.0000       0.0000       0.0000       0.0000       0.0000       0.0000       0.0000       0.0000       0.0000       0.0000       0.0000     
     18     (1,2389)              0.0000       0.0000       0.0000       0.0000       0.0000       0.0000       0.0000       0.0000       0.0000       0.0000       0.0000     
     19     (1,2386)              0.0000       0.0000       0.0000       0.0000       0.0000       0.0000       0.0000       0.0000       0.0000       0.0000       0.0000     
     20     (1,2385)              0.0000       0.0000       0.0000       0.0000       0.0000       0.0000       0.0000       0.0000       0.0000       0.0000       0.0000     
     21     (1,2296)              0.0000       0.0000       0.0000       0.0000       0.0000       0.0000       0.0000       0.0000       0.0000       0.0000       0.0000     
     22     (1,2293)              0.0000       0.0000       0.0000       0.0000       0.0000       0.0000       0.0000       0.0000       0.0000       0.0000       0.0000     
     23     (1,2292)              0.0000       0.0000       0.0000       0.0000       0.0000       0.0000       0.0000       0.0000       0.0000       0.0000       0.0000     
     24     (1,2289)              0.0000       0.0000       0.0000       0.0000       0.0000       0.0000       0.0000       0.0000       0.0000       0.0000       0.0000     
     25     (1,2288)              0.0000       0.0000       0.0000       0.0000       0.0000       0.0000       0.0000       0.0000       0.0000       0.0000       0.0000     
     26     (1,2286)              0.0000       0.0000       0.0000       0.0000       0.0000       0.0000       0.0000       0.0000       0.0000       0.0000       0.0000     
     27     (1,2283)              0.0000       0.0000       0.0000       0.0000       0.0000       0.0000       0.0000       0.0000       0.0000       0.0000       0.0000     
     28     (1,2282)              0.0000       0.0000       0.0000       0.0000       0.0000       0.0000       0.0000       0.0000       0.0000       0.0000       0.0000     
     29     (1,2279)              0.0000       0.0000       0.0000       0.0000       0.0000       0.0000       0.0000       0.0000       0.0000       0.0000       0.0000     
     30     (1,2278)              0.0000       0.0000       0.0000       0.0000       0.0000       0.0000       0.0000       0.0000       0.0000       0.0000       0.0000     
     31     (1,2275)              0.0000       0.0000       0.0000       0.0000       0.0000       0.0000       0.0000       0.0000       0.0000       0.0000       0.0000     
     32     (1,2277)              0.0000       0.0000       0.0000       0.0000       0.0000       0.0000       0.0000       0.0000       0.0000       0.0000       0.0000     
     33     (1,2276)              0.0000       0.0000       0.0000       0.0000       0.0000       0.0000       0.0000       0.0000       0.0000       0.0000       0.0000     
     34     (1,2273)              0.0000       0.0000       0.0000       0.0000       0.0000       0.0000       0.0000       0.0000       0.0000       0.0000       0.0000     
     35     (1,2272)              0.0000       0.0000       0.0000       0.0000       0.0000       0.0000       0.0000       0.0000       0.0000       0.0000       0.0000     
     36     (1,2376)              0.0000       0.0000       0.0000       0.0000       0.0000       0.0000       0.0000       0.0000       0.0000       0.0000       0.0000     
     37     (1,2373)              0.0000       0.0000       0.0000       0.0000       0.0000       0.0000       0.0000       0.0000       0.0000       0.0000       0.0000     
     38     (1,2372)              0.0000       0.0000       0.0000       0.0000       0.0000       0.0000       0.0000       0.0000       0.0000       0.0000       0.0000     
     39     (1,2369)              0.0000       0.0000       0.0000       0.0000       0.0000       0.0000       0.0000       0.0000       0.0000       0.0000       0.0000     
     40     (1,2368)              0.0000       0.0000       0.0000       0.0000       0.0000       0.0000       0.0000       0.0000       0.0000       0.0000       0.0000     
     41     (1,2370)              0.0000       0.0000       0.0000       0.0000       0.0000       0.0000       0.0000       0.0000       0.0000       0.0000       0.0000     
     42     (1,2367)              0.0000       0.0000       0.0000       0.0000       0.0000       0.0000       0.0000       0.0000       0.0000       0.0000       0.0000     
     43     (1,2366)              0.0000       0.0000       0.0000       0.0000       0.0000       0.0000       0.0000       0.0000       0.0000       0.0000       0.0000     
     44     (1,2363)              0.0000       0.0000       0.0000       0.0000       0.0000       0.0000       0.0000       0.0000       0.0000       0.0000       0.0000     
     45     (1,2362)              0.0000       0.0000       0.0000       0.0000       0.0000       0.0000       0.0000       0.0000       0.0000       0.0000       0.0000     
     46     (1,2462)              0.0000       0.0000       0.0000       0.0000       0.0000       0.0000       0.0000       0.0000       0.0000       0.0000       0.0000     
     47     (1,2459)              0.0000       0.0000       0.0000       0.0000       0.0000       0.0000       0.0000       0.0000       0.0000       0.0000       0.0000     
     48     (1,2458)              0.0000       0.0000       0.0000       0.0000       0.0000       0.0000       0.0000       0.0000       0.0000       0.0000       0.0000     
     49     (1,2460)              0.0000       0.0000       0.0000       0.0000       0.0000       0.0000       0.0000       0.0000       0.0000       0.0000       0.0000     
     50     (1,2457)              0.0000       0.0000       0.0000       0.0000       0.0000       0.0000       0.0000       0.0000       0.0000       0.0000       0.0000     
     51     (1,2538)              0.0000       0.0000       0.0000       0.0000       0.0000       0.0000       0.0000       0.0000       0.0000       0.0000       0.0000     
     52     (1,2537)              0.0000       0.0000       0.0000       0.0000       0.0000       0.0000       0.0000       0.0000       0.0000       0.0000       0.0000     
     53     (1,2539)              0.0000       0.0000       0.0000       0.0000       0.0000       0.0000       0.0000       0.0000       0.0000       0.0000       0.0000     
     54     (1,2536)              0.0000       0.0000       0.0000       0.0000       0.0000       0.0000       0.0000       0.0000       0.0000       0.0000       0.0000     
     55     (1,2614)              0.0000       0.0000       0.0000       0.0000       0.0000       0.0000       0.0000       0.0000       0.0000       0.0000       0.0000     
     56     (1,2613)              0.0000       0.0000       0.0000       0.0000       0.0000       0.0000       0.0000       0.0000       0.0000       0.0000       0.0000     
     57     (1,2615)              0.0000       0.0000       0.0000       0.0000       0.0000       0.0000       0.0000       0.0000       0.0000       0.0000       0.0000     
     58     (1,2682)              0.0000       0.0000       0.0000       0.0000       0.0000       0.0000       0.0000       0.0000       0.0000       0.0000       0.0000     
     59     (1,2684)              0.0000       0.0000       0.0000       0.0000       0.0000       0.0000       0.0000       0.0000       0.0000       0.0000       0.0000     
     60     (1,2681)              0.0000       0.0000       0.0000       0.0000       0.0000       0.0000       0.0000       0.0000       0.0000       0.0000       0.0000     
     61     (1,2762)              0.0000       0.0000       0.0000       0.0000       0.0000       0.0000       0.0000       0.0000       0.0000       0.0000       0.0000     
     62     (1,2761)              0.0000       0.0000       0.0000       0.0000       0.0000       0.0000       0.0000       0.0000       0.0000       0.0000       0.0000     
     63     (1,2763)              0.0000       0.0000       0.0000       0.0000       0.0000       0.0000       0.0000       0.0000       0.0000       0.0000       0.0000     
     64     (1,2760)              0.0000       0.0000       0.0000       0.0000       0.0000       0.0000       0.0000       0.0000       0.0000       0.0000       0.0000     
     65     (1,2759)              0.0000       0.0000       0.0000       0.0000       0.0000       0.0000       0.0000       0.0000       0.0000       0.0000       0.0000     
     66     (1,2756)              0.0000       0.0000       0.0000       0.0000       0.0000       0.0000       0.0000       0.0000       0.0000       0.0000       0.0000     
     67     (1,2755)              0.0000       0.0000       0.0000       0.0000       0.0000       0.0000       0.0000       0.0000       0.0000       0.0000       0.0000     
     68     (1,2752)              0.0000       0.0000       0.0000       0.0000       0.0000       0.0000       0.0000       0.0000       0.0000       0.0000       0.0000     
     69     (1,2751)              0.0000       0.0000       0.0000       0.0000       0.0000       0.0000       0.0000       0.0000       0.0000       0.0000       0.0000     
     70     (1,2748)              0.0000       0.0000       0.0000       0.0000       0.0000       0.0000       0.0000       0.0000       0.0000       0.0000       0.0000     
     71     (1,2831)              0.0000       0.0000       0.0000       0.0000       0.0000       0.0000       0.0000       0.0000       0.0000       0.0000       0.0000     
     72     (1,2830)              0.0000       0.0000       0.0000       0.0000       0.0000       0.0000       0.0000       0.0000       0.0000       0.0000       0.0000     
     73     (1,2827)              0.0000       0.0000       0.0000       0.0000       0.0000       0.0000       0.0000       0.0000       0.0000       0.0000       0.0000     
     74     (1,2829)              0.0000       0.0000       0.0000       0.0000       0.0000       0.0000       0.0000       0.0000       0.0000       0.0000       0.0000     
     75     (1,2828)              0.0000       0.0000       0.0000       0.0000       0.0000       0.0000       0.0000       0.0000       0.0000       0.0000       0.0000     
     76     (1,2825)              0.0000       0.0000       0.0000       0.0000       0.0000       0.0000       0.0000       0.0000       0.0000       0.0000       0.0000     
     77     (1,2824)              0.0000       0.0000       0.0000       0.0000       0.0000       0.0000       0.0000       0.0000       0.0000       0.0000       0.0000     
     78     (1,2895)              0.0000       0.0000       0.0000       0.0000       0.0000       0.0000       0.0000       0.0000       0.0000       0.0000       0.0000     
     79     (1,2892)              0.0000       0.0000       0.0000       0.0000       0.0000       0.0000       0.0000       0.0000       0.0000       0.0000       0.0000     
     80     (1,2891)              0.0000       0.0000       0.0000       0.0000       0.0000       0.0000       0.0000       0.0000       0.0000       0.0000       0.0000     
     81     (1,2888)              0.0000       0.0000       0.0000       0.0000       0.0000       0.0000       0.0000       0.0000       0.0000       0.0000       0.0000     
     82     (1,2887)              0.0000       0.0000       0.0000       0.0000       0.0000       0.0000       0.0000       0.0000       0.0000       0.0000       0.0000     
     83     (1,2884)              0.0000       0.0000       0.0000       0.0000       0.0000       0.0000       0.0000       0.0000       0.0000       0.0000       0.0000     
     84     (1,2819)              0.0000       0.0000       0.0000       0.0000       0.0000       0.0000       0.0000       0.0000       0.0000       0.0000       0.0000     
     85     (1,2818)              0.0000       0.0000       0.0000       0.0000       0.0000       0.0000       0.0000       0.0000       0.0000       0.0000       0.0000     
     86     (1,2816)              0.0000       0.0000       0.0000       0.0000       0.0000       0.0000       0.0000       0.0000       0.0000       0.0000       0.0000     
     87     (1,2813)              0.0000       0.0000       0.0000       0.0000       0.0000       0.0000       0.0000       0.0000       0.0000       0.0000       0.0000     
     88     (1,2739)              0.0000       0.0000       0.0000       0.0000       0.0000       0.0000       0.0000       0.0000       0.0000       0.0000       0.0000     
     89     (1,2738)              0.0000       0.0000       0.0000       0.0000       0.0000       0.0000       0.0000       0.0000       0.0000       0.0000       0.0000     
     90     (1,2736)              0.0000       0.0000       0.0000       0.0000       0.0000       0.0000       0.0000       0.0000       0.0000       0.0000       0.0000     
     91     (1,2733)              0.0000       0.0000       0.0000       0.0000       0.0000       0.0000       0.0000       0.0000       0.0000       0.0000       0.0000     
     92     (1,2667)              0.0000       0.0000       0.0000       0.0000       0.0000       0.0000       0.0000       0.0000       0.0000       0.0000       0.0000     
     93     (1,2666)              0.0000       0.0000       0.0000       0.0000       0.0000       0.0000       0.0000       0.0000       0.0000       0.0000       0.0000     
     94     (1,2664)              0.0000       0.0000       0.0000       0.0000       0.0000       0.0000       0.0000       0.0000       0.0000       0.0000       0.0000     
     95     (1,2600)              0.0000      -9.6870       9.6870       0.0000       0.0000       0.0000       0.0000       0.0000       0.0000       0.0000       0.0000     
     96     (1,2597)              9.6870      -106.33       96.647       0.0000       0.0000       0.0000       0.0000       0.0000       0.0000       0.0000       0.0000     
     97     (1,2595)              106.33      -195.56       89.224       0.0000       0.0000       0.0000       0.0000       0.0000       0.0000       0.0000       0.0000     
     98     (1,2520)              195.56      -221.70       26.141       0.0000       0.0000       0.0000       0.0000       0.0000       0.0000       0.0000       0.0000     
     99     (1,2519)              221.70      -261.58       39.878       0.0000       0.0000       0.0000       0.0000       0.0000       0.0000       0.0000       0.0000     
    100     (1,2517)              261.58      -292.14       30.566       0.0000       0.0000       0.0000       0.0000       0.0000       0.0000       0.0000       0.0000     
    101     (1,2436)              292.14      -304.09       11.945       0.0000       0.0000       0.0000       0.0000       0.0000       0.0000       0.0000       0.0000     
    102     (1,2434)              304.09      -300.22      -3.8662       0.0000       0.0000       0.0000       0.0000       0.0000       0.0000       0.0000       0.0000     
    103     (1,2435)              300.22      -313.93       13.709       0.0000       0.0000       0.0000       0.0000       0.0000       0.0000       0.0000       0.0000     
    104     (1,2438)              313.93      -333.02       19.087       0.0000       0.0000       0.0000       0.0000       0.0000       0.0000       0.0000       0.0000     
    105     (1,2344)              333.02      -345.18       12.167       0.0000       0.0000       0.0000       0.0000       0.0000       0.0000       0.0000       0.0000     
    106     (1,2342)              345.18      -336.07      -9.1185       0.0000       0.0000       0.0000       0.0000       0.0000       0.0000       0.0000       0.0000     
    107     (1,2343)              336.07      -348.17       12.106       0.0000       0.0000       0.0000       0.0000       0.0000       0.0000       0.0000       0.0000     
    108     (1,2251)              348.17      -342.27      -5.9001       0.0000       0.0000       0.0000       0.0000       0.0000       0.0000       0.0000       0.0000     
    109     (1,2249)              342.27      -367.12       24.848       0.0000       0.0000       0.0000       0.0000       0.0000       0.0000       0.0000       0.0000     
    110     (1,2183)              367.12      -425.88       58.758       0.0000       0.0000       0.0000       0.0000       0.0000       0.0000       0.0000       0.0000     
    111     (1,2181)              425.88      -488.01       62.131       0.0000       0.0000       0.0000       0.0000       0.0000       0.0000       0.0000       0.0000     
    112     (1,2114)              488.01      -523.81       35.796       0.0000       0.0000       0.0000       0.0000       0.0000       0.0000       0.0000       0.0000     
    113     (1,2112)              523.81      -545.79       21.980       0.0000       0.0000       0.0000       0.0000       0.0000       0.0000       0.0000       0.0000     
    114     (1,2044)              545.79      -545.95       0.16728      0.0000       0.0000       0.0000       0.0000       0.0000       0.0000       0.0000       0.0000     
    115     (1,2043)              545.95      -524.94      -21.017       0.0000       0.0000       0.0000       0.0000       0.0000       0.0000       0.0000       0.0000     
    116     (1,2041)              524.94      -479.68      -45.259       0.0000       0.0000       0.0000       0.0000       0.0000       0.0000       0.0000       0.0000     
    117     (1,1972)              479.68      -461.59      -18.092       0.0000       0.0000       0.0000       0.0000       0.0000       0.0000       0.0000       0.0000     
    118     (1,1969)              461.59      -483.59       22.007       0.0000       0.0000       0.0000       0.0000       0.0000       0.0000       0.0000       0.0000     
    119     (1,1967)              483.59      -470.19      -13.406       0.0000       0.0000       0.0000       0.0000       0.0000       0.0000       0.0000       0.0000     
    120     (1,1966)              470.19      -468.01      -2.1732       0.0000       0.0000       0.0000       0.0000       0.0000       0.0000       0.0000       0.0000     
    121     (1,1893)              468.01      -468.64       0.62336      0.0000       0.0000       0.0000       0.0000       0.0000       0.0000       0.0000       0.0000     
    122     (1,1894)              468.64      -477.81       9.1710       0.0000       0.0000       0.0000       0.0000       0.0000       0.0000       0.0000       0.0000     
    123     (1,1892)              477.81      -458.41      -19.398       0.0000       0.0000       0.0000       0.0000       0.0000       0.0000       0.0000       0.0000     
    124     (1,1895)              458.41      -475.16       16.750       0.0000       0.0000       0.0000       0.0000       0.0000       0.0000       0.0000       0.0000     
    125     (1,1896)              475.16      -523.09       47.933       0.0000       0.0000       0.0000       0.0000       0.0000       0.0000       0.0000       0.0000     
    126     (1,1819)              523.09      -519.58      -3.5077       0.0000       0.0000       0.0000       0.0000       0.0000       0.0000       0.0000       0.0000     
    127     (1,1822)              519.58      -560.85       41.263       0.0000       0.0000       0.0000       0.0000       0.0000       0.0000       0.0000       0.0000     
    128     (1,1820)              560.85      -703.32       142.47       0.0000       0.0000       0.0000       0.0000       0.0000       0.0000       0.0000       0.0000     
    129     (1,1745)              703.32      -833.77       130.45       0.0000       0.0000       0.0000       0.0000       0.0000       0.0000       0.0000       0.0000     
    130     (1,1742)              833.77      -935.01       101.24       0.0000       0.0000       0.0000       0.0000       0.0000       0.0000       0.0000       0.0000     
    131     (1,1741)              935.01      -998.29       63.285       0.0000       0.0000       0.0000       0.0000       0.0000       0.0000       0.0000       0.0000     
    132     (1,1738)              998.29      -1089.5       91.250       0.0000       0.0000       0.0000       0.0000       0.0000       0.0000       0.0000       0.0000     
    133     (1,1737)              1089.5      -1127.9       38.329       0.0000       0.0000       0.0000       0.0000       0.0000       0.0000       0.0000       0.0000     
    134     (1,1735)              1127.9      -1178.8       50.904       0.0000       0.0000       0.0000       0.0000       0.0000       0.0000       0.0000       0.0000     
    135     (1,1732)              1178.8      -1189.1       10.338       0.0000       0.0000       0.0000       0.0000       0.0000       0.0000       0.0000       0.0000     
    136     (1,1653)              1189.1      -1233.7       44.619       0.0000       0.0000       0.0000       0.0000       0.0000       0.0000       0.0000       0.0000     
    137     (1,1651)              1233.7      -1271.4       37.621       0.0000       0.0000       0.0000       0.0000       0.0000       0.0000       0.0000       0.0000     
    138     (1,1654)              1271.4      -1320.6       49.256       0.0000       0.0000       0.0000       0.0000       0.0000       0.0000       0.0000       0.0000     
    139     (1,1655)              1320.6      -1433.2       112.62       0.0000       0.0000       0.0000       0.0000       0.0000       0.0000       0.0000       0.0000     
    140     (1,1658)              1433.2      -1488.6       55.414       0.0000       0.0000       0.0000       0.0000       0.0000       0.0000       0.0000       0.0000     
    141     (1,1548)              1488.6      -1631.1       142.44       0.0000       0.0000       0.0000       0.0000       0.0000       0.0000       0.0000       0.0000     
    142     (1,1546)              1631.1      -1739.0       107.93       0.0000       0.0000       0.0000       0.0000       0.0000       0.0000       0.0000       0.0000     
    143     (1,1543)              1739.0      -1825.6       86.595       0.0000       0.0000       0.0000       0.0000       0.0000       0.0000       0.0000       0.0000     
    144     (1,1453)              1825.6      -1885.8       60.187       0.0000       0.0000       0.0000       0.0000       0.0000       0.0000       0.0000       0.0000     
    145     (1,1452)              1885.8      -1983.6       97.761       0.0000       0.0000       0.0000       0.0000       0.0000       0.0000       0.0000       0.0000     
    146     (1,1449)              1983.6      -2057.1       73.591       0.0000       0.0000       0.0000       0.0000       0.0000       0.0000       0.0000       0.0000     
    147     (1,1448)              2057.1      -2081.1       23.950       0.0000       0.0000       0.0000       0.0000       0.0000       0.0000       0.0000       0.0000     
    148     (1,1538)              2081.1      -2130.3       49.165       0.0000       0.0000       0.0000       0.0000       0.0000       0.0000       0.0000       0.0000     
    149     (1,1535)              2130.3      -2179.6       49.349       0.0000       0.0000       0.0000       0.0000       0.0000       0.0000       0.0000       0.0000     
    150     (1,1537)              2179.6      -2229.8       50.159       0.0000       0.0000       0.0000       0.0000       0.0000       0.0000       0.0000       0.0000     
    151     (1,1647)              2229.8      -2276.4       46.593       0.0000       0.0000       0.0000       0.0000       0.0000       0.0000       0.0000       0.0000     
    152     (1,1649)              2276.4      -2339.7       63.360       0.0000       0.0000       0.0000       0.0000       0.0000       0.0000       0.0000       0.0000     
    153     (1,1648)              2339.7      -2381.9       42.202       0.0000       0.0000       0.0000       0.0000       0.0000       0.0000       0.0000       0.0000     
    154     (1,1645)              2381.9      -2433.7       51.802       0.0000       0.0000       0.0000       0.0000       0.0000       0.0000       0.0000       0.0000     
    155     (1,1644)              2433.7      -2496.7       62.957       0.0000       0.0000       0.0000       0.0000       0.0000       0.0000       0.0000       0.0000     
    156     (1,1642)              2496.7      -2559.9       63.172       0.0000       0.0000       0.0000       0.0000       0.0000       0.0000       0.0000       0.0000     
    157     (1,1639)              2559.9      -2657.2       97.376       0.0000       0.0000       0.0000       0.0000       0.0000       0.0000       0.0000       0.0000     
    158     (1,1638)              2657.2      -2699.1       41.875       0.0000       0.0000       0.0000       0.0000       0.0000       0.0000       0.0000       0.0000     
    159     (1,1640)              2699.1      -2761.2       62.107       0.0000       0.0000       0.0000       0.0000       0.0000       0.0000       0.0000       0.0000     
    160     (1,1637)              2761.2      -2832.3       71.059       0.0000       0.0000       0.0000       0.0000       0.0000       0.0000       0.0000       0.0000     
    161     (1,1636)              2832.3      -2892.2       59.941       0.0000       0.0000       0.0000       0.0000       0.0000       0.0000       0.0000       0.0000     
    162     (1,1633)              2892.2      -2939.3       47.036       0.0000       0.0000       0.0000       0.0000       0.0000       0.0000       0.0000       0.0000     
    163     (1,1632)              2939.3      -2984.7       45.404       0.0000       0.0000       0.0000       0.0000       0.0000       0.0000       0.0000       0.0000     
    164     (1,1629)              2984.7      -3015.6       30.913       0.0000       0.0000       0.0000       0.0000       0.0000       0.0000       0.0000       0.0000     
    165     (1,1628)              3015.6      -3034.1       18.524       0.0000       0.0000       0.0000       0.0000       0.0000       0.0000       0.0000       0.0000     
    166     (1,1625)              3034.1      -3064.2       30.091       0.0000       0.0000       0.0000       0.0000       0.0000       0.0000       0.0000       0.0000     
    167     (1,1624)              3064.2      -3099.0       34.826       0.0000       0.0000       0.0000       0.0000       0.0000       0.0000       0.0000       0.0000     
    168     (1,1621)              3099.0      -3116.8       17.751       0.0000       0.0000       0.0000       0.0000       0.0000       0.0000       0.0000       0.0000     
    169     (1,1620)              3116.8      -3123.9       7.1086       0.0000       0.0000       0.0000       0.0000       0.0000       0.0000       0.0000       0.0000     
    170     (1,1617)              3123.9      -3116.7      -7.1821       0.0000       0.0000       0.0000       0.0000       0.0000       0.0000       0.0000       0.0000     
    171     (1,1615)              3116.7      -3131.5       14.820       0.0000       0.0000       0.0000       0.0000       0.0000       0.0000       0.0000       0.0000     
    172     (1,1614)              3131.5      -3141.2       9.7378       0.0000       0.0000       0.0000       0.0000       0.0000       0.0000       0.0000       0.0000     
    173     (1,1611)              3141.2      -3132.9      -8.3130       0.0000       0.0000       0.0000       0.0000       0.0000       0.0000       0.0000       0.0000     
    174     (1,1525)              3132.9      -3123.8      -9.1714       0.0000       0.0000       0.0000       0.0000       0.0000       0.0000       0.0000       0.0000     
    175     (1,1524)              3123.8      -3159.0       35.244       0.0000       0.0000       0.0000       0.0000       0.0000       0.0000       0.0000       0.0000     
    176     (1,1521)              3159.0      -3167.4       8.3954       0.0000       0.0000       0.0000       0.0000       0.0000       0.0000       0.0000       0.0000     
    177     (1,1519)              3167.4      -3173.0       5.5757       0.0000       0.0000       0.0000       0.0000       0.0000       0.0000       0.0000       0.0000     
    178     (1,1518)              3173.0      -3168.8      -4.1305       0.0000       0.0000       0.0000       0.0000       0.0000       0.0000       0.0000       0.0000     
    179     (1,1515)              3168.8      -3156.3      -12.518       0.0000       0.0000       0.0000       0.0000       0.0000       0.0000       0.0000       0.0000     
    180     (1,1431)              3156.3      -3132.2      -24.106       0.0000       0.0000       0.0000       0.0000       0.0000       0.0000       0.0000       0.0000     
    181     (1,1429)              3132.2      -3097.8      -34.400       0.0000       0.0000       0.0000       0.0000       0.0000       0.0000       0.0000       0.0000     
    182     (1,1432)              3097.8      -3102.2       4.3922       0.0000       0.0000       0.0000       0.0000       0.0000       0.0000       0.0000       0.0000     
    183     (1,1353)              3102.2      -3099.3      -2.9071       0.0000       0.0000       0.0000       0.0000       0.0000       0.0000       0.0000       0.0000     
    184     (1,1351)              3099.3      -3087.0      -12.260       0.0000       0.0000       0.0000       0.0000       0.0000       0.0000       0.0000       0.0000     
    185     (1,1274)              3087.0      -3052.9      -34.186       0.0000       0.0000       0.0000       0.0000       0.0000       0.0000       0.0000       0.0000     
    186     (1,1272)              3052.9      -2990.3      -62.553       0.0000       0.0000       0.0000       0.0000       0.0000       0.0000       0.0000       0.0000     
    187     (1,1194)              2990.3      -3082.2       91.860       0.0000       0.0000       0.0000       0.0000       0.0000       0.0000       0.0000       0.0000     
    188     (1,1192)              3082.2      -3199.5       117.37       0.0000       0.0000       0.0000       0.0000       0.0000       0.0000       0.0000       0.0000     
    189     (1,1189)              3199.5      -3214.1       14.530       0.0000       0.0000       0.0000       0.0000       0.0000       0.0000       0.0000       0.0000     
    190     (1,1111)              3214.1      -3340.0       125.88       0.0000       0.0000       0.0000       0.0000       0.0000       0.0000       0.0000       0.0000     
    191     (1,1109)              3340.0      -3420.9       80.955       0.0000       0.0000       0.0000       0.0000       0.0000       0.0000       0.0000       0.0000     
    192     (1,1108)              3420.9      -3460.0       39.113       0.0000       0.0000       0.0000       0.0000       0.0000       0.0000       0.0000       0.0000     
    193     (1,1030)              3460.0      -3536.4       76.418       0.0000       0.0000       0.0000       0.0000       0.0000       0.0000       0.0000       0.0000     
    194     (1,1028)              3536.4      -3610.9       74.475       0.0000       0.0000       0.0000       0.0000       0.0000       0.0000       0.0000       0.0000     
    195     (1,950)               3610.9      -3631.8       20.916       0.0000       0.0000       0.0000       0.0000       0.0000       0.0000       0.0000       0.0000     
    196     (1,947)               3631.8      -3726.8       94.994       0.0000       0.0000       0.0000       0.0000       0.0000       0.0000       0.0000       0.0000     
    197     (1,945)               3726.8      -3799.9       73.073       0.0000       0.0000       0.0000       0.0000       0.0000       0.0000       0.0000       0.0000     
    198     (1,944)               3799.9      -3876.1       76.155       0.0000       0.0000       0.0000       0.0000       0.0000       0.0000       0.0000       0.0000     
    199     (1,866)               3876.1      -3918.7       42.688       0.0000       0.0000       0.0000       0.0000       0.0000       0.0000       0.0000       0.0000     
    200     (1,863)               3918.7      -3979.8       61.075       0.0000       0.0000       0.0000       0.0000       0.0000       0.0000       0.0000       0.0000     
    201     (1,861)               3979.8      -4035.7       55.888       0.0000       0.0000       0.0000       0.0000       0.0000       0.0000       0.0000       0.0000     
    202     (1,860)               4035.7      -4071.1       35.425       0.0000       0.0000       0.0000       0.0000       0.0000       0.0000       0.0000       0.0000     
    203     (1,782)               4071.1      -4129.7       58.577       0.0000       0.0000       0.0000       0.0000       0.0000       0.0000       0.0000       0.0000     
    204     (1,779)               4129.7      -4146.8       17.083       0.0000       0.0000       0.0000       0.0000       0.0000       0.0000       0.0000       0.0000     
    205     (1,777)               4146.8      -4215.9       69.081       0.0000       0.0000       0.0000       0.0000       0.0000       0.0000       0.0000       0.0000     
    206     (1,700)               4215.9      -4217.1       1.1884       0.0000       0.0000       0.0000       0.0000       0.0000       0.0000       0.0000       0.0000     
    207     (1,699)               4217.1      -4268.3       51.277       0.0000       0.0000       0.0000       0.0000       0.0000       0.0000       0.0000       0.0000     
    208     (1,697)               4268.3      -4280.1       11.774       0.0000       0.0000       0.0000       0.0000       0.0000       0.0000       0.0000       0.0000     
    209     (1,694)               4280.1      -4302.8       22.646       0.0000       0.0000       0.0000       0.0000       0.0000       0.0000       0.0000       0.0000     
    210     (1,618)               4302.8      -4343.8       41.010       0.0000       0.0000       0.0000       0.0000       0.0000       0.0000       0.0000       0.0000     
    211     (1,617)               4343.8      -4373.5       29.771       0.0000       0.0000       0.0000       0.0000       0.0000       0.0000       0.0000       0.0000     
    212     (1,615)               4373.5      -4414.8       41.265       0.0000       0.0000       0.0000       0.0000       0.0000       0.0000       0.0000       0.0000     
    213     (1,612)               4414.8      -4424.0       9.1930       0.0000       0.0000       0.0000       0.0000       0.0000       0.0000       0.0000       0.0000     
    214     (1,537)               4424.0      -4430.4       6.3766       0.0000       0.0000       0.0000       0.0000       0.0000       0.0000       0.0000       0.0000     
    215     (1,535)               4430.4      -4513.1       82.727       0.0000       0.0000       0.0000       0.0000       0.0000       0.0000       0.0000       0.0000     
    216     (1,534)               4513.1      -4606.8       93.696       0.0000       0.0000       0.0000       0.0000       0.0000       0.0000       0.0000       0.0000     
    217     (1,531)               4606.8      -4608.4       1.6276       0.0000       0.0000       0.0000       0.0000       0.0000       0.0000       0.0000       0.0000     
    218     (1,457)               4608.4      -4681.4       72.986       0.0000       0.0000       0.0000       0.0000       0.0000       0.0000       0.0000       0.0000     
    219     (1,455)               4681.4      -4751.7       70.308       0.0000       0.0000       0.0000       0.0000       0.0000       0.0000       0.0000       0.0000     
    220     (1,382)               4751.7      -4791.7       39.984       0.0000       0.0000       0.0000       0.0000       0.0000       0.0000       0.0000       0.0000     
    221     (1,381)               4791.7      -4850.5       58.816       0.0000       0.0000       0.0000       0.0000       0.0000       0.0000       0.0000       0.0000     
    222     (1,378)               4850.5      -4892.5       41.984       0.0000       0.0000       0.0000       0.0000       0.0000       0.0000       0.0000       0.0000     
    223     (1,377)               4892.5      -4929.0       36.496       0.0000       0.0000       0.0000       0.0000       0.0000       0.0000       0.0000       0.0000     
    224     (1,375)               4929.0      -4938.8       9.8482       0.0000       0.0000       0.0000       0.0000       0.0000       0.0000       0.0000       0.0000     
    225     (1,372)               4938.8      -4975.4       36.594       0.0000       0.0000       0.0000       0.0000       0.0000       0.0000       0.0000       0.0000     
    226     (1,371)               4975.4      -4985.2       9.8058       0.0000       0.0000       0.0000       0.0000       0.0000       0.0000       0.0000       0.0000     
    227     (1,299)               4985.2      -5008.9       23.630       0.0000       0.0000       0.0000       0.0000       0.0000       0.0000       0.0000       0.0000     
    228     (1,296)               5008.9      -5024.9       15.998       0.0000       0.0000       0.0000       0.0000       0.0000       0.0000       0.0000       0.0000     
    229     (1,294)               5024.9      -5028.3       3.4765       0.0000       0.0000       0.0000       0.0000       0.0000       0.0000       0.0000       0.0000     
    230     (1,293)               5028.3      -5039.6       11.303       0.0000       0.0000       0.0000       0.0000       0.0000       0.0000       0.0000       0.0000     
    231     (1,290)               5039.6      -5037.0      -2.6099       0.0000       0.0000       0.0000       0.0000       0.0000       0.0000       0.0000       0.0000     
    232     (1,289)               5037.0      -5023.9      -13.146       0.0000       0.0000       0.0000       0.0000       0.0000       0.0000       0.0000       0.0000     
    233     (1,286)               5023.9      -5019.0      -4.9022       0.0000       0.0000       0.0000       0.0000       0.0000       0.0000       0.0000       0.0000     
    234     (1,250)               5019.0      -4986.3      -32.719       0.0000       0.0000       0.0000       0.0000       0.0000       0.0000       0.0000       0.0000     
    235     (1,249)               4986.3      -4912.6      -73.668       0.0000       0.0000       0.0000       0.0000       0.0000       0.0000       0.0000       0.0000     
    236     (1,246)               4912.6      -4928.6       16.026       0.0000       0.0000       0.0000       0.0000       0.0000       0.0000       0.0000       0.0000     
    237     (1,244)               4928.6      -4968.7       40.071       0.0000       0.0000       0.0000       0.0000       0.0000       0.0000       0.0000       0.0000     
    238     (1,243)               4968.7      -5112.4       143.72       0.0000       0.0000       0.0000       0.0000       0.0000       0.0000       0.0000       0.0000     
    239     (1,209)               5112.4      -5183.9       71.465       0.0000       0.0000       0.0000       0.0000       0.0000       0.0000       0.0000       0.0000     
    240     (1,206)               5183.9      -5285.1       101.21       0.0000       0.0000       0.0000       0.0000       0.0000       0.0000       0.0000       0.0000     
    241     (1,204)               5285.1      -5340.5       55.374       0.0000       0.0000       0.0000       0.0000       0.0000       0.0000       0.0000       0.0000     
    242     (1,203)               5340.5      -5425.2       84.721       0.0000       0.0000       0.0000       0.0000       0.0000       0.0000       0.0000       0.0000     
    243     (1,171)               5425.2      -5474.3       49.071       0.0000       0.0000       0.0000       0.0000       0.0000       0.0000       0.0000       0.0000     
    244     (1,168)               5474.3      -5562.7       88.482       0.0000       0.0000       0.0000       0.0000       0.0000       0.0000       0.0000       0.0000     
    245     (1,166)               5562.7      -5570.2       7.4133       0.0000       0.0000       0.0000       0.0000       0.0000       0.0000       0.0000       0.0000     
    246     (1,165)               5570.2      -5663.0       92.872       0.0000       0.0000       0.0000       0.0000       0.0000       0.0000       0.0000       0.0000     
    247     (1,135)               5663.0      -5670.3       7.3015       0.0000       0.0000       0.0000       0.0000       0.0000       0.0000       0.0000       0.0000     
    248     (1,132)               5670.3      -5756.4       86.090       0.0000       0.0000       0.0000       0.0000       0.0000       0.0000       0.0000       0.0000     
    249     (1,130)               5756.4      -5763.2       6.8045       0.0000       0.0000       0.0000       0.0000       0.0000       0.0000       0.0000       0.0000     
    250     (1,129)               5763.2      -5845.1       81.893       0.0000       0.0000       0.0000       0.0000       0.0000       0.0000       0.0000       0.0000     
    251     (1,101)               5845.1      -5851.8       6.7111       0.0000       0.0000       0.0000       0.0000       0.0000       0.0000       0.0000       0.0000     
    252     (1,98)                5851.8      -5930.4       78.556       0.0000       0.0000       0.0000       0.0000       0.0000       0.0000       0.0000       0.0000     
    253     (1,96)                5930.4      -5936.8       6.3698       0.0000       0.0000       0.0000       0.0000       0.0000       0.0000       0.0000       0.0000     
    254     (1,95)                5936.8      -6012.3       75.534       0.0000       0.0000       0.0000       0.0000       0.0000       0.0000       0.0000       0.0000     
    255     (1,69)                6012.3      -6018.7       6.3773       0.0000       0.0000       0.0000       0.0000       0.0000       0.0000       0.0000       0.0000     
    256     (1,66)                6018.7      -6090.7       72.022       0.0000       0.0000       0.0000       0.0000       0.0000       0.0000       0.0000       0.0000     
    257     (1,65)                6090.7      -6094.4       3.7236       0.0000       0.0000       0.0000       0.0000       0.0000       0.0000       0.0000       0.0000     
    258     (1,63)                6094.4      -6162.3       67.843       0.0000       0.0000       0.0000       0.0000       0.0000       0.0000       0.0000       0.0000     
    259     (1,60)                6162.3      -6179.8       17.584       0.0000       0.0000       0.0000       0.0000       0.0000       0.0000       0.0000       0.0000     
    260     (1,36)                6179.8      -6300.9       121.07       0.0000       0.0000       0.0000       0.0000       0.0000       0.0000       0.0000       0.0000     
    261     (1,35)                6300.9      -6352.5       51.630       0.0000       0.0000       0.0000       0.0000       0.0000       0.0000       0.0000       0.0000     
    262     (1,33)                6352.5      -6450.8       98.300       0.0000       0.0000       0.0000       0.0000       0.0000       0.0000       0.0000       0.0000     
    263     (1,30)                6450.8      -6544.6       93.761       0.0000       0.0000       0.0000       0.0000       0.0000       0.0000       0.0000       0.0000     
    264     (1,8)                 6544.6      -6655.1       110.45       0.0000       0.0000       0.0000       0.0000       0.0000       0.0000       0.0000       0.0000     
    265     (1,7)                 6655.1      -6786.3       131.27       0.0000       0.0000       0.0000       0.0000       0.0000       0.0000       0.0000       0.0000     
    266     (1,5)                 6786.3       0.0000       22.768       0.0000       0.0000       0.0000       0.0000      -6809.1       0.0000       0.0000       0.0000     
 ------------------------------------------------------------------------------------------------------------------------------------------------------------------------------




  SFR BUDGET FOR ENTIRE MODEL AT END OF TIME STEP   48, STRESS PERIOD   2
  ------------------------------------------------------------------------------

     CUMULATIVE SFR      L**3       RATES FOR THIS TIME STEP      L**3/T
     ------------------                 ------------------------

           IN:                                      IN:
           ---                                      ---
                 GWF =    10650098.2441                   GWF =        7289.5947
            RAINFALL =           0.0000              RAINFALL =           0.0000
         EVAPORATION =           0.0000           EVAPORATION =           0.0000
              RUNOFF =           0.0000                RUNOFF =           0.0000
          EXT-INFLOW =           0.0000            EXT-INFLOW =           0.0000
         EXT-OUTFLOW =           0.0000           EXT-OUTFLOW =           0.0000
             STORAGE =           0.0000               STORAGE =           0.0000

            TOTAL IN =    10650098.2441              TOTAL IN =        7289.5947

          OUT:                                     OUT:
          ----                                     ----
                 GWF =      702024.7201                   GWF =         480.5098
            RAINFALL =           0.0000              RAINFALL =           0.0000
         EVAPORATION =           0.0000           EVAPORATION =           0.0000
              RUNOFF =           0.0000                RUNOFF =           0.0000
          EXT-INFLOW =           0.0000            EXT-INFLOW =           0.0000
         EXT-OUTFLOW =     9948073.5240           EXT-OUTFLOW =        6809.0849
             STORAGE =           0.0000               STORAGE =           0.0000

           TOTAL OUT =    10650098.2441             TOTAL OUT =        7289.5947

            IN - OUT =           0.0000              IN - OUT =       1.8190E-12

 PERCENT DISCREPANCY =           0.00     PERCENT DISCREPANCY =          -0.00



  VOLUME BUDGET FOR ENTIRE MODEL AT END OF TIME STEP   48, STRESS PERIOD   2
  ---------------------------------------------------------------------------------------------------

     CUMULATIVE VOLUME      L**3       RATES FOR THIS TIME STEP      L**3/T          PACKAGE NAME    
     ------------------                 ------------------------                     ----------------

           IN:                                      IN:
           ---                                      ---
              STO-SS =       1.3600E-04                STO-SS =       1.2748E-12     STORAGE         
              STO-SY =           0.1830                STO-SY =       1.7210E-09     STORAGE         
                 GHB =    13281520.2149                   GHB =        9090.7052     GHB             
                 RCH =      204740.0563                   RCH =         140.1369     RCH             
                 SFR =      702024.7531                   SFR =         480.5098     SFR             

            TOTAL IN =    14188285.2074              TOTAL IN =        9711.3519

          OUT:                                     OUT:
          ----                                     ----
              STO-SS =       3.0062E-08                STO-SS =           0.0000     STORAGE         
              STO-SY =       3.5624E-05                STO-SY =           0.0000     STORAGE         
                 GHB =     3538187.5454                   GHB =        2421.7572     GHB             
                 RCH =           0.0000                   RCH =           0.0000     RCH             
                 SFR =    10650098.0870                   SFR =        7289.5947     SFR             

           TOTAL OUT =    14188285.6325             TOTAL OUT =        9711.3519

            IN - OUT =           0.4251              IN - OUT =       8.6070E-07

 PERCENT DISCREPANCY =          -0.00     PERCENT DISCREPANCY =          -0.00




         TIME SUMMARY AT END OF TIME STEP   48 IN STRESS PERIOD    2
                    SECONDS     MINUTES      HOURS       DAYS        YEARS
                    -----------------------------------------------------------
   TIME STEP LENGTH 2.62800E+06  43800.      730.00      30.417     8.32763E-02
 STRESS PERIOD TIME 1.26144E+08 2.10240E+06  35040.      1460.0      3.9973    
         TOTAL TIME 1.26230E+08 2.10384E+06  35064.      1461.0      4.0000    


end timestep

