                                   MODFLOW 6
                U.S. GEOLOGICAL SURVEY MODULAR HYDROLOGIC MODEL
                          GROUNDWATER FLOW MODEL (GWF)
                            VERSION 6.2.1 02/18/2021

   MODFLOW 6 compiled Feb 18 2021 21:14:51 with IFORT compiler (ver. 19.10.3)

This software has been approved for release by the U.S. Geological 
Survey (USGS). Although the software has been subjected to rigorous 
review, the USGS reserves the right to update the software as needed 
pursuant to further analysis and review. No warranty, expressed or 
implied, is made by the USGS or the U.S. Government as to the 
functionality of the software and related material nor shall the 
fact of release constitute any such warranty. Furthermore, the 
software is released on condition that neither the USGS nor the U.S. 
Government shall be held liable for any damages resulting from its 
authorized or unauthorized use. Also refer to the USGS Water 
Resources Software User Rights Notice for complete use, copyright, 
and distribution information.


System command used to initiate simulation:
..\bins\win\mf6

MODFLOW was compiled using uniform precision.

Real Variables
  KIND: 8
  TINY (smallest non-zero value):    2.225074-308
  HUGE (largest value):    1.797693+308
  PRECISION: 15
  BIT SIZE: 64

Integer Variables
  KIND: 4
  HUGE (largest value): 2147483647
  BIT SIZE: 32

Long Integer Variables
  KIND: 8
  HUGE (largest value): 9223372036854775807
  BIT SIZE: 64

Logical Variables
  KIND: 4
  BIT SIZE: 32
 

 OPENED .\experimental.disv
 FILE TYPE:DISV6                  UNIT 1005   STATUS:OLD                 
 FORMAT:FORMATTED              ACCESS:SEQUENTIAL          
 ACTION:READ                


 OPENED .\experimental.ic
 FILE TYPE:IC6                    UNIT 1006   STATUS:OLD                 
 FORMAT:FORMATTED              ACCESS:SEQUENTIAL          
 ACTION:READ                


 OPENED .\experimental.npf
 FILE TYPE:NPF6                   UNIT 1007   STATUS:OLD                 
 FORMAT:FORMATTED              ACCESS:SEQUENTIAL          
 ACTION:READ                


 OPENED .\experimental.oc
 FILE TYPE:OC6                    UNIT 1008   STATUS:OLD                 
 FORMAT:FORMATTED              ACCESS:SEQUENTIAL          
 ACTION:READ                


 OPENED .\experimental.sto
 FILE TYPE:STO6                   UNIT 1009   STATUS:OLD                 
 FORMAT:FORMATTED              ACCESS:SEQUENTIAL          
 ACTION:READ                


 OPENED .\experimental.ghb
 FILE TYPE:GHB6                   UNIT 1010   STATUS:OLD                 
 FORMAT:FORMATTED              ACCESS:SEQUENTIAL          
 ACTION:READ                


 OPENED .\experimental.sfr
 FILE TYPE:SFR6                   UNIT 1011   STATUS:OLD                 
 FORMAT:FORMATTED              ACCESS:SEQUENTIAL          
 ACTION:READ                


 OPENED .\experimental.obs
 FILE TYPE:OBS6                   UNIT 1012   STATUS:OLD                 
 FORMAT:FORMATTED              ACCESS:SEQUENTIAL          
 ACTION:READ                


 OPENED .\experimental.rch
 FILE TYPE:RCH6                   UNIT 1013   STATUS:OLD                 
 FORMAT:FORMATTED              ACCESS:SEQUENTIAL          
 ACTION:READ                

 NAMEFILE OPTIONS:
    FLOWS WILL BE SAVED TO BUDGET FILE SPECIFIED IN OUTPUT CONTROL

 DISV -- VERTEX GRID DISCRETIZATION PACKAGE, VERSION 1 : 12/23/2015 - INPUT READ FROM UNIT 1005


 # File generated by Flopy version 3.3.5 on 11/03/2021 at 13:12:39.

 PROCESSING DISCRETIZATION OPTIONS
    MODEL LENGTH UNIT IS METERS
 END OF DISCRETIZATION OPTIONS

 PROCESSING DISCRETIZATION DIMENSIONS
   NLAY = 3
   NCPL = 3135
   NVERT = 3386
 END OF DISCRETIZATION DIMENSIONS

 PROCESSING GRIDDATA
 END PROCESSING GRIDDATA

 PROCESSING VERTICES
   SUCCESSFULLY READ 3386 (X,Y) COORDINATES
   MINIMUM X COORDINATE =     426888.873000000    
   MAXIMUM X COORDINATE =     427652.548000000    
   MINIMUM Y COORDINATE =     6654697.49000000    
   MAXIMUM Y COORDINATE =     6655291.46000000    
 END PROCESSING VERTICES

 PROCESSING CELL2D
   SUCCESSFULLY READ 3135 CELL2D INFORMATION ENTRIES
   MINIMUM X CELL CENTER =     426895.944000000    
   MAXIMUM X CELL CENTER =     427645.477000000    
   MINIMUM Y CELL CENTER =     6654704.56000000    
   MAXIMUM Y CELL CENTER =     6655284.39000000    
   MAXIMUM NUMBER OF CELL2D VERTICES IS 8 FOR CELL 1815
 END PROCESSING VERTICES

 NPF -- NODE PROPERTY FLOW PACKAGE, VERSION 1, 3/30/2015 INPUT READ FROM UNIT 1007


 # File generated by Flopy version 3.3.5 on 11/03/2021 at 13:12:39.
 PROCESSING NPF OPTIONS
    CELL-BY-CELL FLOW INFORMATION WILL BE SAVED TO BINARY FILE WHENEVER ICBCFL IS NOT ZERO.
 END OF NPF OPTIONS

 GHB   -- GHB PACKAGE, VERSION 8, 2/22/2014 INPUT READ FROM UNIT 1010
 # File generated by Flopy version 3.3.5 on 11/03/2021 at 13:12:39.

 PROCESSING GHB OPTIONS
    GHB BOUNDARIES HAVE NAMES IN LAST COLUMN.
    LISTS OF GHB CELLS WILL BE PRINTED.
    GHB FLOWS WILL BE PRINTED TO LISTING FILE.
    FLOWS WILL BE SAVED TO BUDGET FILE SPECIFIED IN OUTPUT CONTROL
 END OF GHB OPTIONS

 PROCESSING GHB DIMENSIONS
    MAXBOUND =     180
 END OF GHB DIMENSIONS

 RCH   -- RCH PACKAGE, VERSION 8, 2/22/2014 INPUT READ FROM UNIT 1013
 # File generated by Flopy version 3.3.5 on 11/03/2021 at 13:12:39.

 PROCESSING RCH OPTIONS
    RECHARGE WILL BE APPLIED TO SPECIFIED CELL.
    LISTS OF RCH CELLS WILL BE PRINTED.
    RCH FLOWS WILL BE PRINTED TO LISTING FILE.
    FLOWS WILL BE SAVED TO BUDGET FILE SPECIFIED IN OUTPUT CONTROL
 END OF RCH OPTIONS

 PROCESSING RCH DIMENSIONS
    MAXBOUND =    2955
 END OF RCH DIMENSIONS

 SFR   -- SFR PACKAGE, VERSION 8, 2/22/2014 INPUT READ FROM UNIT 1011
 # File generated by Flopy version 3.3.5 on 11/03/2021 at 13:12:39.

 PROCESSING SFR OPTIONS
    SFR STAGES WILL BE PRINTED TO LISTING FILE.
    SFR FLOWS WILL BE PRINTED TO LISTING FILE.
    FLOWS WILL BE SAVED TO BUDGET FILE SPECIFIED IN OUTPUT CONTROL

 OPENED experimental.sfr.bud
 FILE TYPE:DATA(BINARY)   UNIT 1015   STATUS:REPLACE             
 FORMAT:UNFORMATTED            ACCESS:STREAM              
 ACTION:READWRITE           

    SFR  BUDGET  WILL BE SAVED TO FILE: experimental.sfr.bud                                                                                                                                                                                                                                                                                                                                                                                                                                                                                                                                                                                                                                                                                                                                                                                                                                                                                                                                                                                                                                                                                                                                                                                                                                                                                                                                                                                                                                                                                                                                                                                                                                                                                                                                                                                                                                                                                                                                                                                                                                                                                                                                                                                                                                                                                                                                                                                                                                                                                                                                                                                                                                                                                                                                                                                                                                                                                                                                                                                                                                                                                                                                                                                                                                                                                                                                                                                                                                                                                                                                                                                                                                                                                                                                                                                                                                                                                                                                                                                                                                                                                                                                                                                                                                                                                                                                                                                                                                                                                                                                                                                                                                                                                                                                                                                                                                                                                                                                                                                                                                                                                                                                                                                    
    OPENED ON UNIT:    1015

 OPENED experimental.sfr.obs
 FILE TYPE:OBS   UNIT 1016   STATUS:OLD                 
 FORMAT:FORMATTED              ACCESS:SEQUENTIAL          
 ACTION:READ                

    MAXIMUM SFR ITERATION VALUE (100) SPECIFIED.
    UNIT CONVERSION VALUE (86400.00000000000) SPECIFIED.
 END OF SFR OPTIONS

 PROCESSING SFR DIMENSIONS
    NREACHES = 266
 END OF SFR DIMENSIONS

 PROCESSING SFR PACKAGEDATA
 END OF SFR PACKAGEDATA

 PROCESSING SFR CONNECTIONDATA
 END OF SFR CONNECTIONDATA

 IC -- INITIAL CONDITIONS PACKAGE, VERSION 8, 3/28/2015 INPUT READ FROM UNIT 1006
 # File generated by Flopy version 3.3.5 on 11/03/2021 at 13:12:39.
 PROCESSING GRIDDATA

     INITIAL HEAD =   138.0000    
 END PROCESSING GRIDDATA
 PROCESSING GRIDDATA

                ICELLTYPE = 1 FOR LAYER 1

                ICELLTYPE = 0 FOR LAYER 2

                ICELLTYPE = 0 FOR LAYER 3

                        K =   86.40000     FOR LAYER 1

                        K =   86.40000     FOR LAYER 2

                        K =   43.20000     FOR LAYER 3

                      K33 =   8.640000     FOR LAYER 1

                      K33 =   8.640000     FOR LAYER 2

                      K33 =  0.1000000     FOR LAYER 3
 K22 not provided.  Assuming K22 = K.
 END PROCESSING GRIDDATA

 CELL CONVERSIONS FOR ITER.=0  STEP=0  PERIOD=0   (NODE or LRC)
     DRY             (1,340) DRY             (1,341) DRY             (1,342) DRY             (1,343) DRY             (1,344)
     DRY             (1,345) DRY             (1,346) DRY             (1,347) DRY             (1,416) DRY             (1,417)
     DRY             (1,418) DRY             (1,419) DRY             (1,420) DRY             (1,421) DRY             (1,422)
     DRY             (1,423) DRY             (1,424) DRY             (1,425) DRY             (1,426) DRY             (1,427)
     DRY             (1,428) DRY             (1,491) DRY             (1,492) DRY             (1,493) DRY             (1,494)
     DRY             (1,495) DRY             (1,496) DRY             (1,497) DRY             (1,498) DRY             (1,499)
     DRY             (1,500) DRY             (1,501) DRY             (1,502) DRY             (1,503) DRY             (1,504)
     DRY             (1,570) DRY             (1,571) DRY             (1,572) DRY             (1,573) DRY             (1,574)
     DRY             (1,575) DRY             (1,576) DRY             (1,577) DRY             (1,578) DRY             (1,579)
     DRY             (1,580) DRY             (1,581) DRY             (1,582) DRY             (1,583) DRY             (1,584)
     DRY             (1,651) DRY             (1,652) DRY             (1,653) DRY             (1,654) DRY             (1,655)
     DRY             (1,656) DRY             (1,657) DRY             (1,658) DRY             (1,660) DRY             (1,661)
     DRY             (1,662) DRY             (1,663) DRY             (1,664) DRY             (1,665) DRY             (1,732)
     DRY             (1,733) DRY             (1,735) DRY             (1,736) DRY             (1,737) DRY             (1,739)
     DRY             (1,742) DRY             (1,743) DRY             (1,744) DRY             (1,745) DRY             (1,746)
     DRY             (1,747) DRY             (1,814) DRY             (1,815) DRY             (1,816) DRY             (1,817)
     DRY             (1,818) DRY             (1,819) DRY             (1,820) DRY             (1,824) DRY             (1,825)
     DRY             (1,826) DRY             (1,827) DRY             (1,828) DRY             (1,829) DRY             (1,830)
     DRY             (1,897) DRY             (1,898) DRY             (1,899) DRY             (1,900) DRY             (1,901)
     DRY             (1,907) DRY             (1,908) DRY             (1,909) DRY             (1,910) DRY             (1,911)
     DRY             (1,912) DRY             (1,913) DRY             (1,990) DRY             (1,991) DRY             (1,992)
     DRY             (1,993) DRY             (1,994) DRY             (1,995) DRY             (1,996) DRY            (1,1070)
     DRY            (1,1071) DRY            (1,1072) DRY            (1,1073) DRY            (1,1074) DRY            (1,1075)
     DRY            (1,1076) DRY            (1,1149) DRY            (1,1150) DRY            (1,1151) DRY            (1,1152)
     DRY            (1,1153) DRY            (1,1154) DRY            (1,1155) DRY            (1,1156) DRY            (1,1233)
     DRY            (1,1234) DRY            (1,1235) DRY            (1,1236) DRY            (1,1237) DRY            (1,1238)
     DRY            (1,1239) DRY            (1,1313) DRY            (1,1314) DRY            (1,1315) DRY            (1,1316)
     DRY            (1,1317) DRY            (1,1318) DRY            (1,1319) DRY            (1,1392) DRY            (1,1393)
     DRY            (1,1394) DRY            (1,1395) DRY            (1,1396) DRY            (1,1397) DRY            (1,1398)
     DRY            (1,1479) DRY            (1,1480) DRY            (1,1481) DRY            (1,1482) DRY            (1,1483)
     DRY            (1,1484) DRY            (1,1485) DRY            (1,1572) DRY            (1,1573) DRY            (1,1574)
     DRY            (1,1575) DRY            (1,1576) DRY            (1,1577) DRY            (1,1578) DRY            (1,1579)
     DRY            (1,1580) DRY            (1,1684) DRY            (1,1685) DRY            (1,1686) DRY            (1,1687)
     DRY            (1,1688) DRY            (1,1689) DRY            (1,1690) DRY            (1,1691) DRY            (1,1692)
     DRY            (1,1768) DRY            (1,1769) DRY            (1,1770) DRY            (1,1771) DRY            (1,1772)
     DRY            (1,1773) DRY            (1,1774) DRY            (1,1775) DRY            (1,1776) DRY            (1,1845)
     DRY            (1,1846) DRY            (1,1847) DRY            (1,1848) DRY            (1,1849) DRY            (1,1850)
     DRY            (1,1851) DRY            (1,1852) DRY            (1,1853) DRY            (1,1921) DRY            (1,1922)
     DRY            (1,1923) DRY            (1,1924) DRY            (1,1925) DRY            (1,1926) DRY            (1,1927)
     DRY            (1,1928) DRY            (1,1929) DRY            (1,1997) DRY            (1,1998) DRY            (1,1999)
     DRY            (1,2000) DRY            (1,2001) DRY            (1,2002) DRY            (1,2003) DRY            (1,2004)
     DRY            (1,2068) DRY            (1,2069) DRY            (1,2070) DRY            (1,2071) DRY            (1,2072)
     DRY            (1,2073) DRY            (1,2074) DRY            (1,2075) DRY            (1,2138) DRY            (1,2139)
     DRY            (1,2140) DRY            (1,2141) DRY            (1,2142) DRY            (1,2143) DRY            (1,2144)
     DRY            (1,2145) DRY            (1,2207) DRY            (1,2208) DRY            (1,2209) DRY            (1,2210)
     DRY            (1,2211) DRY            (1,2212) DRY            (1,2213) DRY            (1,2214) DRY            (1,2286)
     DRY            (1,2287) DRY            (1,2288) DRY            (1,2289) DRY            (1,2290) DRY            (1,2291)
     DRY            (1,2292) DRY            (1,2293) DRY            (1,2294) DRY            (1,2295) DRY            (1,2296)
     DRY            (1,2297) DRY            (1,2298) DRY            (1,2299) DRY            (1,2300) DRY            (1,2301)
     DRY            (1,2302) DRY            (1,2303) DRY            (1,2304) DRY            (1,2305) DRY            (1,2306)
     DRY            (1,2307) DRY            (1,2308) DRY            (1,2309) DRY            (1,2382) DRY            (1,2383)
     DRY            (1,2384) DRY            (1,2385) DRY            (1,2386) DRY            (1,2387) DRY            (1,2388)
     DRY            (1,2389) DRY            (1,2390) DRY            (1,2391) DRY            (1,2392) DRY            (1,2393)
     DRY            (1,2394) DRY            (1,2395) DRY            (1,2396) DRY            (1,2397) DRY            (1,2398)
     DRY            (1,2399) DRY            (1,2400) DRY            (1,2401) DRY            (1,2402) DRY            (1,2403)
     DRY            (1,2472) DRY            (1,2473) DRY            (1,2474) DRY            (1,2475) DRY            (1,2476)
     DRY            (1,2477) DRY            (1,2478) DRY            (1,2479) DRY            (1,2480) DRY            (1,2481)
     DRY            (1,2482) DRY            (1,2483) DRY            (1,2484) DRY            (1,2485) DRY            (1,2486)
     DRY            (1,2487) DRY            (1,2548) DRY            (1,2549) DRY            (1,2550) DRY            (1,2551)
     DRY            (1,2552) DRY            (1,2553) DRY            (1,2554) DRY            (1,2555) DRY            (1,2556)
     DRY            (1,2557) DRY            (1,2558) DRY            (1,2559) DRY            (1,2560) DRY            (1,2561)
     DRY            (1,2562) DRY            (1,2563) DRY            (1,2564) DRY            (1,2565) DRY            (1,2624)
     DRY            (1,2625) DRY            (1,2626) DRY            (1,2627) DRY            (1,2628) DRY            (1,2629)
     DRY            (1,2630) DRY            (1,2631) DRY            (1,2632) DRY            (1,2633) DRY            (1,2634)
     DRY            (1,2635) DRY            (1,2692) DRY            (1,2693) DRY            (1,2694) DRY            (1,2695)
     DRY            (1,2696) DRY            (1,2697) DRY            (1,2698) DRY            (1,2699) DRY            (1,2700)
     DRY            (1,2701) DRY            (1,2702) DRY            (1,2703) DRY            (1,2704) DRY            (1,2771)
     DRY            (1,2772) DRY            (1,2773) DRY            (1,2774) DRY            (1,2775) DRY            (1,2776)
     DRY            (1,2777) DRY            (1,2778) DRY            (1,2779) DRY            (1,2780) DRY            (1,2781)
     DRY            (1,2782) DRY            (1,2783) DRY            (1,2784) DRY            (1,2843) DRY            (1,2844)
     DRY            (1,2845) DRY            (1,2846) DRY            (1,2847) DRY            (1,2848) DRY            (1,2849)
     DRY            (1,2850) DRY            (1,2851) DRY            (1,2852) DRY            (1,2853) DRY            (1,2854)
     DRY            (1,2855) DRY            (1,2872) DRY            (1,2908) DRY            (1,2909) DRY            (1,2910)
     DRY            (1,2911) DRY            (1,2912) DRY            (1,2913) DRY            (1,2914) DRY            (1,2915)
     DRY            (1,2916) DRY            (1,2917) DRY            (1,2918) DRY            (1,2919) DRY            (1,2920)
     DRY            (1,2933) DRY            (1,2934) DRY            (1,2935) DRY            (1,2936) DRY            (1,2937)
     DRY            (1,2938) DRY            (1,2939) DRY            (1,2940) DRY            (1,2960) DRY            (1,2961)
     DRY            (1,2962) DRY            (1,2963) DRY            (1,2964) DRY            (1,2965) DRY            (1,2966)
     DRY            (1,2967) DRY            (1,2968) DRY            (1,2969) DRY            (1,2970) DRY            (1,2980)
     DRY            (1,2981) DRY            (1,2982) DRY            (1,2983) DRY            (1,2984) DRY            (1,2985)
     DRY            (1,2986) DRY            (1,2987) DRY            (1,2988) DRY            (1,2989) DRY            (1,2990)
     DRY            (1,2991) DRY            (1,3006) DRY            (1,3007) DRY            (1,3008) DRY            (1,3009)
     DRY            (1,3010) DRY            (1,3011) DRY            (1,3012) DRY            (1,3013) DRY            (1,3014)
     DRY            (1,3015) DRY            (1,3016) DRY            (1,3017) DRY            (1,3025) DRY            (1,3026)
     DRY            (1,3027) DRY            (1,3028) DRY            (1,3029) DRY            (1,3030) DRY            (1,3031)
     DRY            (1,3032) DRY            (1,3033) DRY            (1,3034) DRY            (1,3035) DRY            (1,3036)
     DRY            (1,3037) DRY            (1,3038) DRY            (1,3039) DRY            (1,3040) DRY            (1,3041)
     DRY            (1,3042) DRY            (1,3043) DRY            (1,3044) DRY            (1,3045) DRY            (1,3046)
     DRY            (1,3047) DRY            (1,3048) DRY            (1,3049) DRY            (1,3050) DRY            (1,3051)
     DRY            (1,3052) DRY            (1,3053) DRY            (1,3054) DRY            (1,3055) DRY            (1,3056)
     DRY            (1,3057) DRY            (1,3058) DRY            (1,3059) DRY            (1,3060) DRY            (1,3067)
     DRY            (1,3068) DRY            (1,3069) DRY            (1,3070) DRY            (1,3071) DRY            (1,3072)
     DRY            (1,3073) DRY            (1,3074) DRY            (1,3075) DRY            (1,3076) DRY            (1,3077)
     DRY            (1,3078) DRY            (1,3079) DRY            (1,3080) DRY            (1,3081) DRY            (1,3082)
     DRY            (1,3083) DRY            (1,3084) DRY            (1,3085) DRY            (1,3086) DRY            (1,3087)
     DRY            (1,3088) DRY            (1,3089) DRY            (1,3090) DRY            (1,3091) DRY            (1,3092)
     DRY            (1,3093) DRY            (1,3094) DRY            (1,3095) DRY            (1,3096) DRY            (1,3101)
     DRY            (1,3102) DRY            (1,3103) DRY            (1,3104) DRY            (1,3105) DRY            (1,3106)
     DRY            (1,3107) DRY            (1,3108) DRY            (1,3109) DRY            (1,3110) DRY            (1,3111)
     DRY            (1,3112) DRY            (1,3116) DRY            (1,3117) DRY            (1,3118) DRY            (1,3119)
     DRY            (1,3120) DRY            (1,3121) DRY            (1,3122) DRY            (1,3123) DRY            (1,3124)
     DRY            (1,3125) DRY            (1,3128) DRY            (1,3129) DRY            (1,3130) DRY            (1,3131)
     DRY            (1,3132) DRY            (1,3133) DRY            (1,3134) DRY            (1,3135)

 STO -- STORAGE PACKAGE, VERSION 1, 5/19/2014 INPUT READ FROM UNIT 1009


 # File generated by Flopy version 3.3.5 on 11/03/2021 at 13:12:39.
 PROCESSING STORAGE OPTIONS
    CELL-BY-CELL FLOW INFORMATION WILL BE SAVED TO BINARY FILE WHENEVER ICBCFL IS NOT ZERO.
 END OF STORAGE OPTIONS
 PROCESSING GRIDDATA

                 ICONVERT = 1

         SPECIFIC STORAGE FOR LAYER 1
       1.000E-06  1.000E-06  1.000E-06  1.000E-06  1.000E-06  1.000E-06  1.000E-06  1.000E-06  1.000E-06  1.000E-06  1.000E-06
       1.000E-06  1.000E-06  1.000E-06  1.000E-06  1.000E-06  1.000E-06  1.000E-06  1.000E-06  1.000E-06  1.000E-06  1.000E-06
       1.000E-06  1.000E-06  1.000E-06  1.000E-06  1.000E-06  1.000E-06  1.000E-06  1.000E-06  1.000E-06  1.000E-06  1.000E-06
       1.000E-06  1.000E-06  1.000E-06  1.000E-06  1.000E-06  1.000E-06  1.000E-06  1.000E-06  1.000E-06  1.000E-06  1.000E-06
       1.000E-06  1.000E-06  1.000E-06  1.000E-06  1.000E-06  1.000E-06  1.000E-06  1.000E-06  1.000E-06  1.000E-06  1.000E-06
       1.000E-06  1.000E-06  1.000E-06  1.000E-06  1.000E-06  1.000E-06  1.000E-06  1.000E-06  1.000E-06  1.000E-06  1.000E-06
       1.000E-06  1.000E-06  1.000E-06  1.000E-06  1.000E-06  1.000E-06  1.000E-06  1.000E-06  1.000E-06  1.000E-06  1.000E-06
       1.000E-06  1.000E-06  1.000E-06  1.000E-06  1.000E-06  1.000E-06  1.000E-06  1.000E-06  1.000E-06  1.000E-06  1.000E-06
       1.000E-06  1.000E-06  1.000E-06  1.000E-06  1.000E-06  1.000E-06  1.000E-06  1.000E-06  1.000E-06  1.000E-06  1.000E-06
       1.000E-06  1.000E-06  1.000E-06  1.000E-06  1.000E-06  1.000E-06  1.000E-06  1.000E-06  1.000E-06  1.000E-06  1.000E-06
       1.000E-06  1.000E-06  1.000E-06  1.000E-06  1.000E-06  1.000E-06  1.000E-06  1.000E-06  1.000E-06  1.000E-06  1.000E-06
       1.000E-06  1.000E-06  1.000E-06  1.000E-06  1.000E-06  1.000E-06  1.000E-06  1.000E-06  1.000E-06  1.000E-06  1.000E-06
       1.000E-06  1.000E-06  1.000E-06  1.000E-06  1.000E-06  1.000E-06  1.000E-06  1.000E-06  1.000E-06  1.000E-06  1.000E-06
       1.000E-06  1.000E-06  1.000E-06  1.000E-06  1.000E-06  1.000E-06  1.000E-06  1.000E-06  1.000E-06  1.000E-06  1.000E-06
       1.000E-06  1.000E-06  1.000E-06  1.000E-06  1.000E-06  1.000E-06  1.000E-06  1.000E-06  1.000E-06  1.000E-06  1.000E-06
       1.000E-06  1.000E-06  1.000E-06  1.000E-06  1.000E-06  1.000E-06  1.000E-06  1.000E-06  1.000E-06  1.000E-06  1.000E-06
       1.000E-06  1.000E-06  1.000E-06  1.000E-06  1.000E-06  1.000E-06  1.000E-06  1.000E-06  1.000E-06  1.000E-06  1.000E-06
       1.000E-06  1.000E-06  1.000E-06  1.000E-06  1.000E-06  1.000E-06  1.000E-06  1.000E-06  1.000E-06  1.000E-06  1.000E-06
       1.000E-06  1.000E-06  1.000E-06  1.000E-06  1.000E-06  1.000E-06  1.000E-06  1.000E-06  1.000E-06  1.000E-06  1.000E-06
       1.000E-06  1.000E-06  1.000E-06  1.000E-06  1.000E-06  1.000E-06  1.000E-06  1.000E-06  1.000E-06  1.000E-06  1.000E-06
       1.000E-06  1.000E-06  1.000E-06  1.000E-06  1.000E-06  1.000E-06  1.000E-06  1.000E-06  1.000E-06  1.000E-06  1.000E-06
       1.000E-06  1.000E-06  1.000E-06  1.000E-06  1.000E-06  1.000E-06  1.000E-06  1.000E-06  1.000E-06  1.000E-06  1.000E-06
       1.000E-06  1.000E-06  1.000E-06  1.000E-06  1.000E-06  1.000E-06  1.000E-06  1.000E-06  1.000E-06  1.000E-06  1.000E-06
       1.000E-06  1.000E-06  1.000E-06  1.000E-06  1.000E-06  1.000E-06  1.000E-06  1.000E-06  1.000E-06  1.000E-06  1.000E-06
       1.000E-06  1.000E-06  1.000E-06  1.000E-06  1.000E-06  1.000E-06  1.000E-06  1.000E-06  1.000E-06  1.000E-06  1.000E-06
       1.000E-06  1.000E-06  1.000E-06  1.000E-06  1.000E-06  1.000E-06  1.000E-06  1.000E-06  1.000E-06  1.000E-06  1.000E-06
       1.000E-06  1.000E-06  1.000E-06  1.000E-06  1.000E-06  1.000E-06  1.000E-06  1.000E-06  1.000E-06  1.000E-06  1.000E-06
       1.000E-06  1.000E-06  1.000E-06  1.000E-06  1.000E-06  1.000E-06  1.000E-06  1.000E-06  1.000E-06  1.000E-06  1.000E-06
       1.000E-06  1.000E-06  1.000E-06  1.000E-06  1.000E-06  1.000E-06  1.000E-06  1.000E-06  1.000E-06  1.000E-06  1.000E-06
       1.000E-06  1.000E-06  1.000E-06  1.000E-06  1.000E-06  1.000E-06  1.000E-06  1.000E-06  1.000E-06  1.000E-06  1.000E-06
       1.000E-06  1.000E-06  1.000E-06  1.000E-06  1.000E-06  1.000E-06  1.000E-06  1.000E-06  1.000E-06  1.000E-06  1.000E-06
       1.000E-06  1.000E-06  1.000E-06  1.000E-06  1.000E-06  1.000E-06  1.000E-06  1.000E-06  1.000E-06  1.000E-06  1.000E-06
       1.000E-06  1.000E-06  1.000E-06  1.000E-06  1.000E-06  1.000E-06  1.000E-06  1.000E-06  1.000E-06  1.000E-06  1.000E-06
       1.000E-06  1.000E-06  1.000E-06  1.000E-06  1.000E-06  1.000E-06  1.000E-06  1.000E-06  1.000E-06  1.000E-06  1.000E-06
       1.000E-06  1.000E-06  1.000E-06  1.000E-06  1.000E-06  1.000E-06  1.000E-06  1.000E-06  1.000E-06  1.000E-06  1.000E-06
       1.000E-06  1.000E-06  1.000E-06  1.000E-06  1.000E-06  1.000E-06  1.000E-06  1.000E-06  1.000E-06  1.000E-06  1.000E-06
       1.000E-06  1.000E-06  1.000E-06  1.000E-06  1.000E-06  1.000E-06  1.000E-06  1.000E-06  1.000E-06  1.000E-06  1.000E-06
       1.000E-06  1.000E-06  1.000E-06  1.000E-06  1.000E-06  1.000E-06  1.000E-06  1.000E-06  1.000E-06  1.000E-06  1.000E-06
       1.000E-06  1.000E-06  1.000E-06  1.000E-06  1.000E-06  1.000E-06  1.000E-06  1.000E-06  1.000E-06  1.000E-06  1.000E-06
       1.000E-06  1.000E-06  1.000E-06  1.000E-06  1.000E-06  1.000E-06  1.000E-06  1.000E-06  1.000E-06  1.000E-06  1.000E-06
       1.000E-06  1.000E-06  1.000E-06  1.000E-06  1.000E-06  1.000E-06  1.000E-06  1.000E-06  1.000E-06  1.000E-06  1.000E-06
       1.000E-06  1.000E-06  1.000E-06  1.000E-06  1.000E-06  1.000E-06  1.000E-06  1.000E-06  1.000E-06  1.000E-06  1.000E-06
       1.000E-06  1.000E-06  1.000E-06  1.000E-06  1.000E-06  1.000E-06  1.000E-06  1.000E-06  1.000E-06  1.000E-06  1.000E-06
       1.000E-06  1.000E-06  1.000E-06  1.000E-06  1.000E-06  1.000E-06  1.000E-06  1.000E-06  1.000E-06  1.000E-06  1.000E-06
       1.000E-06  1.000E-06  1.000E-06  1.000E-06  1.000E-06  1.000E-06  1.000E-06  1.000E-06  1.000E-06  1.000E-06  1.000E-06
       1.000E-06  1.000E-06  1.000E-06  1.000E-06  1.000E-06  1.000E-06  1.000E-06  1.000E-06  1.000E-06  1.000E-06  1.000E-06
       1.000E-06  1.000E-06  1.000E-06  1.000E-06  1.000E-06  1.000E-06  1.000E-06  1.000E-06  1.000E-06  1.000E-06  1.000E-06
       1.000E-06  1.000E-06  1.000E-06  1.000E-06  1.000E-06  1.000E-06  1.000E-06  1.000E-06  1.000E-06  1.000E-06  1.000E-06
       1.000E-06  1.000E-06  1.000E-06  1.000E-06  1.000E-06  1.000E-06  1.000E-06  1.000E-06  1.000E-06  1.000E-06  1.000E-06
       1.000E-06  1.000E-06  1.000E-06  1.000E-06  1.000E-06  1.000E-06  1.000E-06  1.000E-06  1.000E-06  1.000E-06  1.000E-06
       1.000E-06  1.000E-06  1.000E-06  1.000E-06  1.000E-06  1.000E-06  1.000E-06  1.000E-06  1.000E-06  1.000E-06  1.000E-06
       1.000E-06  1.000E-06  1.000E-06  1.000E-06  1.000E-06  1.000E-06  1.000E-06  1.000E-06  1.000E-06  1.000E-06  1.000E-06
       1.000E-06  1.000E-06  1.000E-06  1.000E-06  1.000E-06  1.000E-06  1.000E-06  1.000E-06  1.000E-06  1.000E-06  1.000E-06
       1.000E-06  1.000E-06  1.000E-06  1.000E-06  1.000E-06  1.000E-06  1.000E-06  1.000E-06  1.000E-06  1.000E-06  1.000E-06
       1.000E-06  1.000E-06  1.000E-06  1.000E-06  1.000E-06  1.000E-06  1.000E-06  1.000E-06  1.000E-06  1.000E-06  1.000E-06
       1.000E-06  1.000E-06  1.000E-06  1.000E-06  1.000E-06  1.000E-06  1.000E-06  1.000E-06  1.000E-06  1.000E-06  1.000E-06
       1.000E-06  1.000E-06  1.000E-06  1.000E-06  1.000E-06  1.000E-06  1.000E-06  1.000E-06  1.000E-06  1.000E-06  1.000E-06
       1.000E-06  1.000E-06  1.000E-06  1.000E-06  1.000E-06  1.000E-06  1.000E-06  1.000E-06  1.000E-06  1.000E-06  1.000E-06
       1.000E-06  1.000E-06  1.000E-06  1.000E-06  1.000E-06  1.000E-06  1.000E-06  1.000E-06  1.000E-06  1.000E-06  1.000E-06
       1.000E-06  1.000E-06  1.000E-06  1.000E-06  1.000E-06  1.000E-06  1.000E-06  1.000E-06  1.000E-06  1.000E-06  1.000E-06
       1.000E-06  1.000E-06  1.000E-06  1.000E-06  1.000E-06  1.000E-06  1.000E-06  1.000E-06  1.000E-06  1.000E-06  1.000E-06
       1.000E-06  1.000E-06  1.000E-06  1.000E-06  1.000E-06  1.000E-06  1.000E-06  1.000E-06  1.000E-06  1.000E-06  1.000E-06
       1.000E-06  1.000E-06  1.000E-06  1.000E-06  1.000E-06  1.000E-06  1.000E-06  1.000E-06  1.000E-06  1.000E-06  1.000E-06
       1.000E-06  1.000E-06  1.000E-06  1.000E-06  1.000E-06  1.000E-06  1.000E-06  1.000E-06  1.000E-06  1.000E-06  1.000E-06
       1.000E-06  1.000E-06  1.000E-06  1.000E-06  1.000E-06  1.000E-06  1.000E-06  1.000E-06  1.000E-06  1.000E-06  1.000E-06
       1.000E-06  1.000E-06  1.000E-06  1.000E-06  1.000E-06  1.000E-06  1.000E-06  1.000E-06  1.000E-06  1.000E-06  1.000E-06
       1.000E-06  1.000E-06  1.000E-06  1.000E-06  1.000E-06  1.000E-06  1.000E-06  1.000E-06  1.000E-06  1.000E-06  1.000E-06
       1.000E-06  1.000E-06  1.000E-06  1.000E-06  1.000E-06  1.000E-06  1.000E-06  1.000E-06  1.000E-06  1.000E-06  1.000E-06
       1.000E-06  1.000E-06  1.000E-06  1.000E-06  1.000E-06  1.000E-06  1.000E-06  1.000E-06  1.000E-06  1.000E-06  1.000E-06
       1.000E-06  1.000E-06  1.000E-06  1.000E-06  1.000E-06  1.000E-06  1.000E-06  1.000E-06  1.000E-06  1.000E-06  1.000E-06
       1.000E-06  1.000E-06  1.000E-06  1.000E-06  1.000E-06  1.000E-06  1.000E-06  1.000E-06  1.000E-06  1.000E-06  1.000E-06
       1.000E-06  1.000E-06  1.000E-06  1.000E-06  1.000E-06  1.000E-06  1.000E-06  1.000E-06  1.000E-06  1.000E-06  1.000E-06
       1.000E-06  1.000E-06  1.000E-06  1.000E-06  1.000E-06  1.000E-06  1.000E-06  1.000E-06  1.000E-06  1.000E-06  1.000E-06
       1.000E-06  1.000E-06  1.000E-06  1.000E-06  1.000E-06  1.000E-06  1.000E-06  1.000E-06  1.000E-06  1.000E-06  1.000E-06
       1.000E-06  1.000E-06  1.000E-06  1.000E-06  1.000E-06  1.000E-06  1.000E-06  1.000E-06  1.000E-06  1.000E-06  1.000E-06
       1.000E-06  1.000E-06  1.000E-06  1.000E-06  1.000E-06  1.000E-06  1.000E-06  1.000E-06  1.000E-06  1.000E-06  1.000E-06
       1.000E-06  1.000E-06  1.000E-06  1.000E-06  1.000E-06  1.000E-06  1.000E-06  1.000E-06  1.000E-06  1.000E-06  1.000E-06
       1.000E-06  1.000E-06  1.000E-06  1.000E-06  1.000E-06  1.000E-06  1.000E-06  1.000E-06  1.000E-06  1.000E-06  1.000E-06
       1.000E-06  1.000E-06  1.000E-06  1.000E-06  1.000E-06  1.000E-06  1.000E-06  1.000E-06  1.000E-06  1.000E-06  1.000E-06
       1.000E-06  1.000E-06  1.000E-06  1.000E-06  1.000E-06  1.000E-06  1.000E-06  1.000E-06  1.000E-06  1.000E-06  1.000E-06
       1.000E-06  1.000E-06  1.000E-06  1.000E-06  1.000E-06  1.000E-06  1.000E-06  1.000E-06  1.000E-06  1.000E-06  1.000E-06
       1.000E-06  1.000E-06  1.000E-06  1.000E-06  1.000E-06  1.000E-06  1.000E-06  1.000E-06  1.000E-06  1.000E-06  1.000E-06
       1.000E-06  1.000E-06  1.000E-06  1.000E-06  1.000E-06  1.000E-06  1.000E-06  1.000E-06  1.000E-06  1.000E-06  1.000E-06
       1.000E-06  1.000E-06  1.000E-06  1.000E-06  1.000E-06  1.000E-06  1.000E-06  1.000E-06  1.000E-06  1.000E-06  1.000E-06
       1.000E-06  1.000E-06  1.000E-06  1.000E-06  1.000E-06  1.000E-06  1.000E-06  1.000E-06  1.000E-06  1.000E-06  1.000E-06
       1.000E-06  1.000E-06  1.000E-06  1.000E-06  1.000E-06  1.000E-06  1.000E-06  1.000E-06  1.000E-06  1.000E-06  1.000E-06
       1.000E-06  1.000E-06  1.000E-06  1.000E-06  1.000E-06  1.000E-06  1.000E-06  1.000E-06  1.000E-06  1.000E-06  1.000E-06
       1.000E-06  1.000E-06  1.000E-06  1.000E-06  1.000E-06  1.000E-06  1.000E-06  1.000E-06  1.000E-06  1.000E-06  1.000E-06
       1.000E-06  1.000E-06  1.000E-06  1.000E-06  1.000E-06  1.000E-06  1.000E-06  1.000E-06  1.000E-06  1.000E-06  1.000E-06
       1.000E-06  1.000E-06  1.000E-06  1.000E-06  1.000E-06  1.000E-06  1.000E-06  1.000E-06  1.000E-06  1.000E-06  1.000E-06
       1.000E-06  1.000E-06  1.000E-06  1.000E-06  1.000E-06  1.000E-06  1.000E-06  1.000E-06  1.000E-06  1.000E-06  1.000E-06
       1.000E-06  1.000E-06  1.000E-06  1.000E-06  1.000E-06  1.000E-06  1.000E-06  1.000E-06  1.000E-06  1.000E-06  1.000E-06
       1.000E-06  1.000E-06  1.000E-06  1.000E-06  1.000E-06  1.000E-06  1.000E-06  1.000E-06  1.000E-06  1.000E-06  1.000E-06
       1.000E-06  1.000E-06  1.000E-06  1.000E-06  1.000E-06  1.000E-06  1.000E-06  1.000E-06  1.000E-06  1.000E-06  1.000E-06
       1.000E-06  1.000E-06  1.000E-06  1.000E-06  1.000E-06  1.000E-06  1.000E-06  1.000E-06  1.000E-06  1.000E-06  1.000E-06
       1.000E-06  1.000E-06  1.000E-06  1.000E-06  1.000E-06  1.000E-06  1.000E-06  1.000E-06  1.000E-06  1.000E-06  1.000E-06
       1.000E-06  1.000E-06  1.000E-06  1.000E-06  1.000E-06  1.000E-06  1.000E-06  1.000E-06  1.000E-06  1.000E-06  1.000E-06
       1.000E-06  1.000E-06  1.000E-06  1.000E-06  1.000E-06  1.000E-06  1.000E-06  1.000E-06  1.000E-06  1.000E-06  1.000E-06
       1.000E-06  1.000E-06  1.000E-06  1.000E-06  1.000E-06  1.000E-06  1.000E-06  1.000E-06  1.000E-06  1.000E-06  1.000E-06
       1.000E-06  1.000E-06  1.000E-06  1.000E-06  1.000E-06  1.000E-06  1.000E-06  1.000E-06  1.000E-06  1.000E-06  1.000E-06
       1.000E-06  1.000E-06  1.000E-06  1.000E-06  1.000E-06  1.000E-06  1.000E-06  1.000E-06  1.000E-06  1.000E-06  1.000E-06
       1.000E-06  1.000E-06  1.000E-06  1.000E-06  1.000E-06  1.000E-06  1.000E-06  1.000E-06  1.000E-06  1.000E-06  1.000E-06
       1.000E-06  1.000E-06  1.000E-06  1.000E-06  1.000E-06  1.000E-06  1.000E-06  1.000E-06  1.000E-06  1.000E-06  1.000E-06
       1.000E-06  1.000E-06  1.000E-06  1.000E-06  1.000E-06  1.000E-06  1.000E-06  1.000E-06  1.000E-06  1.000E-06  1.000E-06
       1.000E-06  1.000E-06  1.000E-06  1.000E-06  1.000E-06  1.000E-06  1.000E-06  1.000E-06  1.000E-06  1.000E-06  1.000E-06
       1.000E-06  1.000E-06  1.000E-06  1.000E-06  1.000E-06  1.000E-06  1.000E-06  1.000E-06  1.000E-06  1.000E-06  1.000E-06
       1.000E-06  1.000E-06  1.000E-06  1.000E-06  1.000E-06  1.000E-06  1.000E-06  1.000E-06  1.000E-06  1.000E-06  1.000E-06
       1.000E-06  1.000E-06  1.000E-06  1.000E-06  1.000E-06  1.000E-06  1.000E-06  1.000E-06  1.000E-06  1.000E-06  1.000E-06
       1.000E-06  1.000E-06  1.000E-06  1.000E-06  1.000E-06  1.000E-06  1.000E-06  1.000E-06  1.000E-06  1.000E-06  1.000E-06
       1.000E-06  1.000E-06  1.000E-06  1.000E-06  1.000E-06  1.000E-06  1.000E-06  1.000E-06  1.000E-06  1.000E-06  1.000E-06
       1.000E-06  1.000E-06  1.000E-06  1.000E-06  1.000E-06  1.000E-06  1.000E-06  1.000E-06  1.000E-06  1.000E-06  1.000E-06
       1.000E-06  1.000E-06  1.000E-06  1.000E-06  1.000E-06  1.000E-06  1.000E-06  1.000E-06  1.000E-06  1.000E-06  1.000E-06
       1.000E-06  1.000E-06  1.000E-06  1.000E-06  1.000E-06  1.000E-06  1.000E-06  1.000E-06  1.000E-06  1.000E-06  1.000E-06
       1.000E-06  1.000E-06  1.000E-06  1.000E-06  1.000E-06  1.000E-06  1.000E-06  1.000E-06  1.000E-06  1.000E-06  1.000E-06
       1.000E-06  1.000E-06  1.000E-06  1.000E-06  1.000E-06  1.000E-06  1.000E-06  1.000E-06  1.000E-06  1.000E-06  1.000E-06
       1.000E-06  1.000E-06  1.000E-06  1.000E-06  1.000E-06  1.000E-06  1.000E-06  1.000E-06  1.000E-06  1.000E-06  1.000E-06
       1.000E-06  1.000E-06  1.000E-06  1.000E-06  1.000E-06  1.000E-06  1.000E-06  1.000E-06  1.000E-06  1.000E-06  1.000E-06
       1.000E-06  1.000E-06  1.000E-06  1.000E-06  1.000E-06  1.000E-06  1.000E-06  1.000E-06  1.000E-06  1.000E-06  1.000E-06
       1.000E-06  1.000E-06  1.000E-06  1.000E-06  1.000E-06  1.000E-06  1.000E-06  1.000E-06  1.000E-06  1.000E-06  1.000E-06
       1.000E-06  1.000E-06  1.000E-06  1.000E-06  1.000E-06  1.000E-06  1.000E-06  1.000E-06  1.000E-06  1.000E-06  1.000E-06
       1.000E-06  1.000E-06  1.000E-06  1.000E-06  1.000E-06  1.000E-06  1.000E-06  1.000E-06  1.000E-06  1.000E-06  1.000E-06
       1.000E-06  1.000E-06  1.000E-06  1.000E-06  1.000E-06  1.000E-06  1.000E-06  1.000E-06  1.000E-06  1.000E-06  1.000E-06
       1.000E-06  1.000E-06  1.000E-06  1.000E-06  1.000E-06  1.000E-06  1.000E-06  1.000E-06  1.000E-06  1.000E-06  1.000E-06
       1.000E-06  1.000E-06  1.000E-06  1.000E-06  1.000E-06  1.000E-06  1.000E-06  1.000E-06  1.000E-06  1.000E-06  1.000E-06
       1.000E-06  1.000E-06  1.000E-06  1.000E-06  1.000E-06  1.000E-06  1.000E-06  1.000E-06  1.000E-06  1.000E-06  1.000E-06
       1.000E-06  1.000E-06  1.000E-06  1.000E-06  1.000E-06  1.000E-06  1.000E-06  1.000E-06  1.000E-06  1.000E-06  1.000E-06
       1.000E-06  1.000E-06  1.000E-06  1.000E-06  1.000E-06  1.000E-06  1.000E-06  1.000E-06  1.000E-06  1.000E-06  1.000E-06
       1.000E-06  1.000E-06  1.000E-06  1.000E-06  1.000E-06  1.000E-06  1.000E-06  1.000E-06  1.000E-06  1.000E-06  1.000E-06
       1.000E-06  1.000E-06  1.000E-06  1.000E-06  1.000E-06  1.000E-06  1.000E-06  1.000E-06  1.000E-06  1.000E-06  1.000E-06
       1.000E-06  1.000E-06  1.000E-06  1.000E-06  1.000E-06  1.000E-06  1.000E-06  1.000E-06  1.000E-06  1.000E-06  1.000E-06
       1.000E-06  1.000E-06  1.000E-06  1.000E-06  1.000E-06  1.000E-06  1.000E-06  1.000E-06  1.000E-06  1.000E-06  1.000E-06
       1.000E-06  1.000E-06  1.000E-06  1.000E-06  1.000E-06  1.000E-06  1.000E-06  1.000E-06  1.000E-06  1.000E-06  1.000E-06
       1.000E-06  1.000E-06  1.000E-06  1.000E-06  1.000E-06  1.000E-06  1.000E-06  1.000E-06  1.000E-06  1.000E-06  1.000E-06
       1.000E-06  1.000E-06  1.000E-06  1.000E-06  1.000E-06  1.000E-06  1.000E-06  1.000E-06  1.000E-06  1.000E-06  1.000E-06
       1.000E-06  1.000E-06  1.000E-06  1.000E-06  1.000E-06  1.000E-06  1.000E-06  1.000E-06  1.000E-06  1.000E-06  1.000E-06
       1.000E-06  1.000E-06  1.000E-06  1.000E-06  1.000E-06  1.000E-06  1.000E-06  1.000E-06  1.000E-06  1.000E-06  1.000E-06
       1.000E-06  1.000E-06  1.000E-06  1.000E-06  1.000E-06  1.000E-06  1.000E-06  1.000E-06  1.000E-06  1.000E-06  1.000E-06
       1.000E-06  1.000E-06  1.000E-06  1.000E-06  1.000E-06  1.000E-06  1.000E-06  1.000E-06  1.000E-06  1.000E-06  1.000E-06
       1.000E-06  1.000E-06  1.000E-06  1.000E-06  1.000E-06  1.000E-06  1.000E-06  1.000E-06  1.000E-06  1.000E-06  1.000E-06
       1.000E-06  1.000E-06  1.000E-06  1.000E-06  1.000E-06  1.000E-06  1.000E-06  1.000E-06  1.000E-06  1.000E-06  1.000E-06
       1.000E-06  1.000E-06  1.000E-06  1.000E-06  1.000E-06  1.000E-06  1.000E-06  1.000E-06  1.000E-06  1.000E-06  1.000E-06
       1.000E-06  1.000E-06  1.000E-06  1.000E-06  1.000E-06  1.000E-06  1.000E-06  1.000E-06  1.000E-06  1.000E-06  1.000E-06
       1.000E-06  1.000E-06  1.000E-06  1.000E-06  1.000E-06  1.000E-06  1.000E-06  1.000E-06  1.000E-06  1.000E-06  1.000E-06
       1.000E-06  1.000E-06  1.000E-06  1.000E-06  1.000E-06  1.000E-06  1.000E-06  1.000E-06  1.000E-06  1.000E-06  1.000E-06
       1.000E-06  1.000E-06  1.000E-06  1.000E-06  1.000E-06  1.000E-06  1.000E-06  1.000E-06  1.000E-06  1.000E-06  1.000E-06
       1.000E-06  1.000E-06  1.000E-06  1.000E-06  1.000E-06  1.000E-06  1.000E-06  1.000E-06  1.000E-06  1.000E-06  1.000E-06
       1.000E-06  1.000E-06  1.000E-06  1.000E-06  1.000E-06  1.000E-06  1.000E-06  1.000E-06  1.000E-06  1.000E-06  1.000E-06
       1.000E-06  1.000E-06  1.000E-06  1.000E-06  1.000E-06  1.000E-06  1.000E-06  1.000E-06  1.000E-06  1.000E-06  1.000E-06
       1.000E-06  1.000E-06  1.000E-06  1.000E-06  1.000E-06  1.000E-06  1.000E-06  1.000E-06  1.000E-06  1.000E-06  1.000E-06
       1.000E-06  1.000E-06  1.000E-06  1.000E-06  1.000E-06  1.000E-06  1.000E-06  1.000E-06  1.000E-06  1.000E-06  1.000E-06
       1.000E-06  1.000E-06  1.000E-06  1.000E-06  1.000E-06  1.000E-06  1.000E-06  1.000E-06  1.000E-06  1.000E-06  1.000E-06
       1.000E-06  1.000E-06  1.000E-06  1.000E-06  1.000E-06  1.000E-06  1.000E-06  1.000E-06  1.000E-06  1.000E-06  1.000E-06
       1.000E-06  1.000E-06  1.000E-06  1.000E-06  1.000E-06  1.000E-06  1.000E-06  1.000E-06  1.000E-06  1.000E-06  1.000E-06
       1.000E-06  1.000E-06  1.000E-06  1.000E-06  1.000E-06  1.000E-06  1.000E-06  1.000E-06  1.000E-06  1.000E-06  1.000E-06
       1.000E-06  1.000E-06  1.000E-06  1.000E-06  1.000E-06  1.000E-06  1.000E-06  1.000E-06  1.000E-06  1.000E-06  1.000E-06
       1.000E-06  1.000E-06  1.000E-06  1.000E-06  1.000E-06  1.000E-06  1.000E-06  1.000E-06  1.000E-06  1.000E-06  1.000E-06
       1.000E-06  1.000E-06  1.000E-06  1.000E-06  1.000E-06  1.000E-06  1.000E-06  1.000E-06  1.000E-06  1.000E-06  1.000E-06
       1.000E-06  1.000E-06  1.000E-06  1.000E-06  1.000E-06  1.000E-06  1.000E-06  1.000E-06  1.000E-06  1.000E-06  1.000E-06
       1.000E-06  1.000E-06  1.000E-06  1.000E-06  1.000E-06  1.000E-06  1.000E-06  1.000E-06  1.000E-06  1.000E-06  1.000E-06
       1.000E-06  1.000E-06  1.000E-06  1.000E-06  1.000E-06  1.000E-06  1.000E-06  1.000E-06  1.000E-06  1.000E-06  1.000E-06
       1.000E-06  1.000E-06  1.000E-06  1.000E-06  1.000E-06  1.000E-06  1.000E-06  1.000E-06  1.000E-06  1.000E-06  1.000E-06
       1.000E-06  1.000E-06  1.000E-06  1.000E-06  1.000E-06  1.000E-06  1.000E-06  1.000E-06  1.000E-06  1.000E-06  1.000E-06
       1.000E-06  1.000E-06  1.000E-06  1.000E-06  1.000E-06  1.000E-06  1.000E-06  1.000E-06  1.000E-06  1.000E-06  1.000E-06
       1.000E-06  1.000E-06  1.000E-06  1.000E-06  1.000E-06  1.000E-06  1.000E-06  1.000E-06  1.000E-06  1.000E-06  1.000E-06
       1.000E-06  1.000E-06  1.000E-06  1.000E-06  1.000E-06  1.000E-06  1.000E-06  1.000E-06  1.000E-06  1.000E-06  1.000E-06
       1.000E-06  1.000E-06  1.000E-06  1.000E-06  1.000E-06  1.000E-06  1.000E-06  1.000E-06  1.000E-06  1.000E-06  1.000E-06
       1.000E-06  1.000E-06  1.000E-06  1.000E-06  1.000E-06  1.000E-06  1.000E-06  1.000E-06  1.000E-06  1.000E-06  1.000E-06
       1.000E-06  1.000E-06  1.000E-06  1.000E-06  1.000E-06  1.000E-06  1.000E-06  1.000E-06  1.000E-06  1.000E-06  1.000E-06
       1.000E-06  1.000E-06  1.000E-06  1.000E-06  1.000E-06  1.000E-06  1.000E-06  1.000E-06  1.000E-06  1.000E-06  1.000E-06
       1.000E-06  1.000E-06  1.000E-06  1.000E-06  1.000E-06  1.000E-06  1.000E-06  1.000E-06  1.000E-06  1.000E-06  1.000E-06
       1.000E-06  1.000E-06  1.000E-06  1.000E-06  1.000E-06  1.000E-06  1.000E-06  1.000E-06  1.000E-06  1.000E-06  1.000E-06
       1.000E-06  1.000E-06  1.000E-06  1.000E-06  1.000E-06  1.000E-06  1.000E-06  1.000E-06  1.000E-06  1.000E-06  1.000E-06
       1.000E-06  1.000E-06  1.000E-06  1.000E-06  1.000E-06  1.000E-06  1.000E-06  1.000E-06  1.000E-06  1.000E-06  1.000E-06
       1.000E-06  1.000E-06  1.000E-06  1.000E-06  1.000E-06  1.000E-06  1.000E-06  1.000E-06  1.000E-06  1.000E-06  1.000E-06
       1.000E-06  1.000E-06  1.000E-06  1.000E-06  1.000E-06  1.000E-06  1.000E-06  1.000E-06  1.000E-06  1.000E-06  1.000E-06
       1.000E-06  1.000E-06  1.000E-06  1.000E-06  1.000E-06  1.000E-06  1.000E-06  1.000E-06  1.000E-06  1.000E-06  1.000E-06
       1.000E-06  1.000E-06  1.000E-06  1.000E-06  1.000E-06  1.000E-06  1.000E-06  1.000E-06  1.000E-06  1.000E-06  1.000E-06
       1.000E-06  1.000E-06  1.000E-06  1.000E-06  1.000E-06  1.000E-06  1.000E-06  1.000E-06  1.000E-06  1.000E-06  1.000E-06
       1.000E-06  1.000E-06  1.000E-06  1.000E-06  1.000E-06  1.000E-06  1.000E-06  1.000E-06  1.000E-06  1.000E-06  1.000E-06
       1.000E-06  1.000E-06  1.000E-06  1.000E-06  1.000E-06  1.000E-06  1.000E-06  1.000E-06  1.000E-06  1.000E-06  1.000E-06
       1.000E-06  1.000E-06  1.000E-06  1.000E-06  1.000E-06  1.000E-06  1.000E-06  1.000E-06  1.000E-06  1.000E-06  1.000E-06
       1.000E-06  1.000E-06  1.000E-06  1.000E-06  1.000E-06  1.000E-06  1.000E-06  1.000E-06  1.000E-06  1.000E-06  1.000E-06
       1.000E-06  1.000E-06  1.000E-06  1.000E-06  1.000E-06  1.000E-06  1.000E-06  1.000E-06  1.000E-06  1.000E-06  1.000E-06
       1.000E-06  1.000E-06  1.000E-06  1.000E-06  1.000E-06  1.000E-06  1.000E-06  1.000E-06  1.000E-06  1.000E-06  1.000E-06
       1.000E-06  1.000E-06  1.000E-06  1.000E-06  1.000E-06  1.000E-06  1.000E-06  1.000E-06  1.000E-06  1.000E-06  1.000E-06
       1.000E-06  1.000E-06  1.000E-06  1.000E-06  1.000E-06  1.000E-06  1.000E-06  1.000E-06  1.000E-06  1.000E-06  1.000E-06
       1.000E-06  1.000E-06  1.000E-06  1.000E-06  1.000E-06  1.000E-06  1.000E-06  1.000E-06  1.000E-06  1.000E-06  1.000E-06
       1.000E-06  1.000E-06  1.000E-06  1.000E-06  1.000E-06  1.000E-06  1.000E-06  1.000E-06  1.000E-06  1.000E-06  1.000E-06
       1.000E-06  1.000E-06  1.000E-06  1.000E-06  1.000E-06  1.000E-06  1.000E-06  1.000E-06  1.000E-06  1.000E-06  1.000E-06
       1.000E-06  1.000E-06  1.000E-06  1.000E-06  1.000E-06  1.000E-06  1.000E-06  1.000E-06  1.000E-06  1.000E-06  1.000E-06
       1.000E-06  1.000E-06  1.000E-06  1.000E-06  1.000E-06  1.000E-06  1.000E-06  1.000E-06  1.000E-06  1.000E-06  1.000E-06
       1.000E-06  1.000E-06  1.000E-06  1.000E-06  1.000E-06  1.000E-06  1.000E-06  1.000E-06  1.000E-06  1.000E-06  1.000E-06
       1.000E-06  1.000E-06  1.000E-06  1.000E-06  1.000E-06  1.000E-06  1.000E-06  1.000E-06  1.000E-06  1.000E-06  1.000E-06
       1.000E-06  1.000E-06  1.000E-06  1.000E-06  1.000E-06  1.000E-06  1.000E-06  1.000E-06  1.000E-06  1.000E-06  1.000E-06
       1.000E-06  1.000E-06  1.000E-06  1.000E-06  1.000E-06  1.000E-06  1.000E-06  1.000E-06  1.000E-06  1.000E-06  1.000E-06
       1.000E-06  1.000E-06  1.000E-06  1.000E-06  1.000E-06  1.000E-06  1.000E-06  1.000E-06  1.000E-06  1.000E-06  1.000E-06
       1.000E-06  1.000E-06  1.000E-06  1.000E-06  1.000E-06  1.000E-06  1.000E-06  1.000E-06  1.000E-06  1.000E-06  1.000E-06
       1.000E-06  1.000E-06  1.000E-06  1.000E-06  1.000E-06  1.000E-06  1.000E-06  1.000E-06  1.000E-06  1.000E-06  1.000E-06
       1.000E-06  1.000E-06  1.000E-06  1.000E-06  1.000E-06  1.000E-06  1.000E-06  1.000E-06  1.000E-06  1.000E-06  1.000E-06
       1.000E-06  1.000E-06  1.000E-06  1.000E-06  1.000E-06  1.000E-06  1.000E-06  1.000E-06  1.000E-06  1.000E-06  1.000E-06
       1.000E-06  1.000E-06  1.000E-06  1.000E-06  1.000E-06  1.000E-06  1.000E-06  1.000E-06  1.000E-06  1.000E-06  1.000E-06
       1.000E-06  1.000E-06  1.000E-06  1.000E-06  1.000E-06  1.000E-06  1.000E-06  1.000E-06  1.000E-06  1.000E-06  1.000E-06
       1.000E-06  1.000E-06  1.000E-06  1.000E-06  1.000E-06  1.000E-06  1.000E-06  1.000E-06  1.000E-06  1.000E-06  1.000E-06
       1.000E-06  1.000E-06  1.000E-06  1.000E-06  1.000E-06  1.000E-06  1.000E-06  1.000E-06  1.000E-06  1.000E-06  1.000E-06
       1.000E-06  1.000E-06  1.000E-06  1.000E-06  1.000E-06  1.000E-06  1.000E-06  1.000E-06  1.000E-06  1.000E-06  1.000E-06
       1.000E-06  1.000E-06  1.000E-06  1.000E-06  1.000E-06  1.000E-06  1.000E-06  1.000E-06  1.000E-06  1.000E-06  1.000E-06
       1.000E-06  1.000E-06  1.000E-06  1.000E-06  1.000E-06  1.000E-06  1.000E-06  1.000E-06  1.000E-06  1.000E-06  1.000E-06
       1.000E-06  1.000E-06  1.000E-06  1.000E-06  1.000E-06  1.000E-06  1.000E-06  1.000E-06  1.000E-06  1.000E-06  1.000E-06
       1.000E-06  1.000E-06  1.000E-06  1.000E-06  1.000E-06  1.000E-06  1.000E-06  1.000E-06  1.000E-06  1.000E-06  1.000E-06
       1.000E-06  1.000E-06  1.000E-06  1.000E-06  1.000E-06  1.000E-06  1.000E-06  1.000E-06  1.000E-06  1.000E-06  1.000E-06
       1.000E-06  1.000E-06  1.000E-06  1.000E-06  1.000E-06  1.000E-06  1.000E-06  1.000E-06  1.000E-06  1.000E-06  1.000E-06
       1.000E-06  1.000E-06  1.000E-06  1.000E-06  1.000E-06  1.000E-06  1.000E-06  1.000E-06  1.000E-06  1.000E-06  1.000E-06
       1.000E-06  1.000E-06  1.000E-06  1.000E-06  1.000E-06  1.000E-06  1.000E-06  1.000E-06  1.000E-06  1.000E-06  1.000E-06
       1.000E-06  1.000E-06  1.000E-06  1.000E-06  1.000E-06  1.000E-06  1.000E-06  1.000E-06  1.000E-06  1.000E-06  1.000E-06
       1.000E-06  1.000E-06  1.000E-06  1.000E-06  1.000E-06  1.000E-06  1.000E-06  1.000E-06  1.000E-06  1.000E-06  1.000E-06
       1.000E-06  1.000E-06  1.000E-06  1.000E-06  1.000E-06  1.000E-06  1.000E-06  1.000E-06  1.000E-06  1.000E-06  1.000E-06
       1.000E-06  1.000E-06  1.000E-06  1.000E-06  1.000E-06  1.000E-06  1.000E-06  1.000E-06  1.000E-06  1.000E-06  1.000E-06
       1.000E-06  1.000E-06  1.000E-06  1.000E-06  1.000E-06  1.000E-06  1.000E-06  1.000E-06  1.000E-06  1.000E-06  1.000E-06
       1.000E-06  1.000E-06  1.000E-06  1.000E-06  1.000E-06  1.000E-06  1.000E-06  1.000E-06  1.000E-06  1.000E-06  1.000E-06
       1.000E-06  1.000E-06  1.000E-06  1.000E-06  1.000E-06  1.000E-06  1.000E-06  1.000E-06  1.000E-06  1.000E-06  1.000E-06
       1.000E-06  1.000E-06  1.000E-06  1.000E-06  1.000E-06  1.000E-06  1.000E-06  1.000E-06  1.000E-06  1.000E-06  1.000E-06
       1.000E-06  1.000E-06  1.000E-06  1.000E-06  1.000E-06  1.000E-06  1.000E-06  1.000E-06  1.000E-06  1.000E-06  1.000E-06
       1.000E-06  1.000E-06  1.000E-06  1.000E-06  1.000E-06  1.000E-06  1.000E-06  1.000E-06  1.000E-06  1.000E-06  1.000E-06
       1.000E-06  1.000E-06  1.000E-06  1.000E-06  1.000E-06  1.000E-06  1.000E-06  1.000E-06  1.000E-06  1.000E-06  1.000E-06
       1.000E-06  1.000E-06  1.000E-06  1.000E-06  1.000E-06  1.000E-06  1.000E-06  1.000E-06  1.000E-06  1.000E-06  1.000E-06
       1.000E-06  1.000E-06  1.000E-06  1.000E-06  1.000E-06  1.000E-06  1.000E-06  1.000E-06  1.000E-06  1.000E-06  1.000E-06
       1.000E-06  1.000E-06  1.000E-06  1.000E-06  1.000E-06  1.000E-06  1.000E-06  1.000E-06  1.000E-06  1.000E-06  1.000E-06
       1.000E-06  1.000E-06  1.000E-06  1.000E-06  1.000E-06  1.000E-06  1.000E-06  1.000E-06  1.000E-06  1.000E-06  1.000E-06
       1.000E-06  1.000E-06  1.000E-06  1.000E-06  1.000E-06  1.000E-06  1.000E-06  1.000E-06  1.000E-06  1.000E-06  1.000E-06
       1.000E-06  1.000E-06  1.000E-06  1.000E-06  1.000E-06  1.000E-06  1.000E-06  1.000E-06  1.000E-06  1.000E-06  1.000E-06
       1.000E-06  1.000E-06  1.000E-06  1.000E-06  1.000E-06  1.000E-06  1.000E-06  1.000E-06  1.000E-06  1.000E-06  1.000E-06
       1.000E-06  1.000E-06  1.000E-06  1.000E-06  1.000E-06  1.000E-06  1.000E-06  1.000E-06  1.000E-06  1.000E-06  1.000E-06
       1.000E-06  1.000E-06  1.000E-06  1.000E-06  1.000E-06  1.000E-06  1.000E-06  1.000E-06  1.000E-06  1.000E-06  1.000E-06
       1.000E-06  1.000E-06  1.000E-06  1.000E-06  1.000E-06  1.000E-06  1.000E-06  1.000E-06  1.000E-06  1.000E-06  1.000E-06
       1.000E-06  1.000E-06  1.000E-06  1.000E-06  1.000E-06  1.000E-06  1.000E-06  1.000E-06  1.000E-06  1.000E-06  1.000E-06
       1.000E-06  1.000E-06  1.000E-06  1.000E-06  1.000E-06  1.000E-06  1.000E-06  1.000E-06  1.000E-06  1.000E-06  1.000E-06
       1.000E-06  1.000E-06  1.000E-06  1.000E-06  1.000E-06  1.000E-06  1.000E-06  1.000E-06  1.000E-06  1.000E-06  1.000E-06
       1.000E-06  1.000E-06  1.000E-06  1.000E-06  1.000E-06  1.000E-06  1.000E-06  1.000E-06  1.000E-06  1.000E-06  1.000E-06
       1.000E-06  1.000E-06  1.000E-06  1.000E-06  1.000E-06  1.000E-06  1.000E-06  1.000E-06  1.000E-06  1.000E-06  1.000E-06
       1.000E-06  1.000E-06  1.000E-06  1.000E-06  1.000E-06  1.000E-06  1.000E-06  1.000E-06  1.000E-06  1.000E-06  1.000E-06
       1.000E-06  1.000E-06  1.000E-06  1.000E-06  1.000E-06  1.000E-06  1.000E-06  1.000E-06  1.000E-06  1.000E-06  1.000E-06
       1.000E-06  1.000E-06  1.000E-06  1.000E-06  1.000E-06  1.000E-06  1.000E-06  1.000E-06  1.000E-06  1.000E-06  1.000E-06
       1.000E-06  1.000E-06  1.000E-06  1.000E-06  1.000E-06  1.000E-06  1.000E-06  1.000E-06  1.000E-06  1.000E-06  1.000E-06
       1.000E-06  1.000E-06  1.000E-06  1.000E-06  1.000E-06  1.000E-06  1.000E-06  1.000E-06  1.000E-06  1.000E-06  1.000E-06
       1.000E-06  1.000E-06  1.000E-06  1.000E-06  1.000E-06  1.000E-06  1.000E-06  1.000E-06  1.000E-06  1.000E-06  1.000E-06
       1.000E-06  1.000E-06  1.000E-06  1.000E-06  1.000E-06  1.000E-06  1.000E-06  1.000E-06  1.000E-06  1.000E-06  1.000E-06
       1.000E-06  1.000E-06  1.000E-06  1.000E-06  1.000E-06  1.000E-06  1.000E-06  1.000E-06  1.000E-06  1.000E-06  1.000E-06
       1.000E-06  1.000E-06  1.000E-06  1.000E-06  1.000E-06  1.000E-06  1.000E-06  1.000E-06  1.000E-06  1.000E-06  1.000E-06
       1.000E-06  1.000E-06  1.000E-06  1.000E-06  1.000E-06  1.000E-06  1.000E-06  1.000E-06  1.000E-06  1.000E-06  1.000E-06
       1.000E-06  1.000E-06  1.000E-06  1.000E-06  1.000E-06  1.000E-06  1.000E-06  1.000E-06  1.000E-06  1.000E-06  1.000E-06
       1.000E-06  1.000E-06  1.000E-06  1.000E-06  1.000E-06  1.000E-06  1.000E-06  1.000E-06  1.000E-06  1.000E-06  1.000E-06
       1.000E-06  1.000E-06  1.000E-06  1.000E-06  1.000E-06  1.000E-06  1.000E-06  1.000E-06  1.000E-06  1.000E-06  1.000E-06
       1.000E-06  1.000E-06  1.000E-06  1.000E-06  1.000E-06  1.000E-06  1.000E-06  1.000E-06  1.000E-06  1.000E-06  1.000E-06
       1.000E-06  1.000E-06  1.000E-06  1.000E-06  1.000E-06  1.000E-06  1.000E-06  1.000E-06  1.000E-06  1.000E-06  1.000E-06
       1.000E-06  1.000E-06  1.000E-06  1.000E-06  1.000E-06  1.000E-06  1.000E-06  1.000E-06  1.000E-06  1.000E-06  1.000E-06
       1.000E-06  1.000E-06  1.000E-06  1.000E-06  1.000E-06  1.000E-06  1.000E-06  1.000E-06  1.000E-06  1.000E-06  1.000E-06
       1.000E-06  1.000E-06  1.000E-06  1.000E-06  1.000E-06  1.000E-06  1.000E-06  1.000E-06  1.000E-06  1.000E-06  1.000E-06
       1.000E-06  1.000E-06  1.000E-06  1.000E-06  1.000E-06  1.000E-06  1.000E-06  1.000E-06  1.000E-06  1.000E-06  1.000E-06
       1.000E-06  1.000E-06  1.000E-06  1.000E-06  1.000E-06  1.000E-06  1.000E-06  1.000E-06  1.000E-06  1.000E-06  1.000E-06
       1.000E-06  1.000E-06  1.000E-06  1.000E-06  1.000E-06  1.000E-06  1.000E-06  1.000E-06  1.000E-06  1.000E-06  1.000E-06
       1.000E-06  1.000E-06  1.000E-06  1.000E-06  1.000E-06  1.000E-06  1.000E-06  1.000E-06  1.000E-06  1.000E-06  1.000E-06
       1.000E-06  1.000E-06  1.000E-06  1.000E-06  1.000E-06  1.000E-06  1.000E-06  1.000E-06  1.000E-06  1.000E-06  1.000E-06
       1.000E-06  1.000E-06  1.000E-06  1.000E-06  1.000E-06  1.000E-06  1.000E-06  1.000E-06  1.000E-06  1.000E-06  1.000E-06
       1.000E-06  1.000E-06  1.000E-06  1.000E-06  1.000E-06  1.000E-06  1.000E-06  1.000E-06  1.000E-06  1.000E-06  1.000E-06
       1.000E-06  1.000E-06  1.000E-06  1.000E-06  1.000E-06  1.000E-06  1.000E-06  1.000E-06  1.000E-06  1.000E-06  1.000E-06
       1.000E-06  1.000E-06  1.000E-06  1.000E-06  1.000E-06  1.000E-06  1.000E-06  1.000E-06  1.000E-06  1.000E-06  1.000E-06
       1.000E-06  1.000E-06  1.000E-06  1.000E-06  1.000E-06  1.000E-06  1.000E-06  1.000E-06  1.000E-06  1.000E-06  1.000E-06
       1.000E-06  1.000E-06  1.000E-06  1.000E-06  1.000E-06  1.000E-06  1.000E-06  1.000E-06  1.000E-06  1.000E-06  1.000E-06
       1.000E-06  1.000E-06  1.000E-06  1.000E-06  1.000E-06  1.000E-06  1.000E-06  1.000E-06  1.000E-06  1.000E-06  1.000E-06
       1.000E-06  1.000E-06  1.000E-06  1.000E-06  1.000E-06  1.000E-06  1.000E-06  1.000E-06  1.000E-06  1.000E-06  1.000E-06
       1.000E-06  1.000E-06  1.000E-06  1.000E-06  1.000E-06  1.000E-06  1.000E-06  1.000E-06  1.000E-06  1.000E-06  1.000E-06
       1.000E-06  1.000E-06  1.000E-06  1.000E-06  1.000E-06  1.000E-06  1.000E-06  1.000E-06  1.000E-06  1.000E-06  1.000E-06
       1.000E-06  1.000E-06  1.000E-06  1.000E-06  1.000E-06  1.000E-06  1.000E-06  1.000E-06  1.000E-06  1.000E-06  1.000E-06
       1.000E-06  1.000E-06  1.000E-06  1.000E-06  1.000E-06  1.000E-06  1.000E-06  1.000E-06  1.000E-06  1.000E-06  1.000E-06
       1.000E-06  1.000E-06  1.000E-06  1.000E-06  1.000E-06  1.000E-06  1.000E-06  1.000E-06  1.000E-06  1.000E-06  1.000E-06
       1.000E-06  1.000E-06  1.000E-06  1.000E-06  1.000E-06  1.000E-06  1.000E-06  1.000E-06  1.000E-06  1.000E-06  1.000E-06
       1.000E-06  1.000E-06  1.000E-06  1.000E-06  1.000E-06  1.000E-06  1.000E-06  1.000E-06  1.000E-06  1.000E-06  1.000E-06
       1.000E-06  1.000E-06  1.000E-06  1.000E-06  1.000E-06  1.000E-06  1.000E-06  1.000E-06  1.000E-06  1.000E-06  1.000E-06
       1.000E-06  1.000E-06  1.000E-06  1.000E-06  1.000E-06  1.000E-06  1.000E-06  1.000E-06  1.000E-06  1.000E-06  1.000E-06
       1.000E-06  1.000E-06  1.000E-06  1.000E-06  1.000E-06  1.000E-06  1.000E-06  1.000E-06  1.000E-06  1.000E-06  1.000E-06
       1.000E-06  1.000E-06  1.000E-06  1.000E-06  1.000E-06  1.000E-06  1.000E-06  1.000E-06  1.000E-06  1.000E-06  1.000E-06
       1.000E-06  1.000E-06  1.000E-06  1.000E-06  1.000E-06  1.000E-06  1.000E-06  1.000E-06  1.000E-06  1.000E-06  1.000E-06
       1.000E-06  1.000E-06  1.000E-06  1.000E-06  1.000E-06  1.000E-06  1.000E-06  1.000E-06  1.000E-06  1.000E-06  1.000E-06
       1.000E-06  1.000E-06  1.000E-06  1.000E-06  1.000E-06  1.000E-06  1.000E-06  1.000E-06  1.000E-06  1.000E-06  1.000E-06
       1.000E-06  1.000E-06  1.000E-06  1.000E-06  1.000E-06  1.000E-06  1.000E-06  1.000E-06  1.000E-06  1.000E-06  1.000E-06

         SPECIFIC STORAGE FOR LAYER 2
       1.000E-06  1.000E-06  1.000E-06  1.000E-06  1.000E-06  1.000E-06  1.000E-06  1.000E-06  1.000E-06  1.000E-06  1.000E-06
       1.000E-06  1.000E-06  1.000E-06  1.000E-06  1.000E-06  1.000E-06  1.000E-06  1.000E-06  1.000E-06  1.000E-06  1.000E-06
       1.000E-06  1.000E-06  1.000E-06  1.000E-06  1.000E-06  1.000E-06  1.000E-06  1.000E-06  1.000E-06  1.000E-06  1.000E-06
       1.000E-06  1.000E-06  1.000E-06  1.000E-06  1.000E-06  1.000E-06  1.000E-06  1.000E-06  1.000E-06  1.000E-06  1.000E-06
       1.000E-06  1.000E-06  1.000E-06  1.000E-06  1.000E-06  1.000E-06  1.000E-06  1.000E-06  1.000E-06  1.000E-06  1.000E-06
       1.000E-06  1.000E-06  1.000E-06  1.000E-06  1.000E-06  1.000E-06  1.000E-06  1.000E-06  1.000E-06  1.000E-06  1.000E-06
       1.000E-06  1.000E-06  1.000E-06  1.000E-06  1.000E-06  1.000E-06  1.000E-06  1.000E-06  1.000E-06  1.000E-06  1.000E-06
       1.000E-06  1.000E-06  1.000E-06  1.000E-06  1.000E-06  1.000E-06  1.000E-06  1.000E-06  1.000E-06  1.000E-06  1.000E-06
       1.000E-06  1.000E-06  1.000E-06  1.000E-06  1.000E-06  1.000E-06  1.000E-06  1.000E-06  1.000E-06  1.000E-06  1.000E-06
       1.000E-06  1.000E-06  1.000E-06  1.000E-06  1.000E-06  1.000E-06  1.000E-06  1.000E-06  1.000E-06  1.000E-06  1.000E-06
       1.000E-06  1.000E-06  1.000E-06  1.000E-06  1.000E-06  1.000E-06  1.000E-06  1.000E-06  1.000E-06  1.000E-06  1.000E-06
       1.000E-06  1.000E-06  1.000E-06  1.000E-06  1.000E-06  1.000E-06  1.000E-06  1.000E-06  1.000E-06  1.000E-06  1.000E-06
       1.000E-06  1.000E-06  1.000E-06  1.000E-06  1.000E-06  1.000E-06  1.000E-06  1.000E-06  1.000E-06  1.000E-06  1.000E-06
       1.000E-06  1.000E-06  1.000E-06  1.000E-06  1.000E-06  1.000E-06  1.000E-06  1.000E-06  1.000E-06  1.000E-06  1.000E-06
       1.000E-06  1.000E-06  1.000E-06  1.000E-06  1.000E-06  1.000E-06  1.000E-06  1.000E-06  1.000E-06  1.000E-06  1.000E-06
       1.000E-06  1.000E-06  1.000E-06  1.000E-06  1.000E-06  1.000E-06  1.000E-06  1.000E-06  1.000E-06  1.000E-06  1.000E-06
       1.000E-06  1.000E-06  1.000E-06  1.000E-06  1.000E-06  1.000E-06  1.000E-06  1.000E-06  1.000E-06  1.000E-06  1.000E-06
       1.000E-06  1.000E-06  1.000E-06  1.000E-06  1.000E-06  1.000E-06  1.000E-06  1.000E-06  1.000E-06  1.000E-06  1.000E-06
       1.000E-06  1.000E-06  1.000E-06  1.000E-06  1.000E-06  1.000E-06  1.000E-06  1.000E-06  1.000E-06  1.000E-06  1.000E-06
       1.000E-06  1.000E-06  1.000E-06  1.000E-06  1.000E-06  1.000E-06  1.000E-06  1.000E-06  1.000E-06  1.000E-06  1.000E-06
       1.000E-06  1.000E-06  1.000E-06  1.000E-06  1.000E-06  1.000E-06  1.000E-06  1.000E-06  1.000E-06  1.000E-06  1.000E-06
       1.000E-06  1.000E-06  1.000E-06  1.000E-06  1.000E-06  1.000E-06  1.000E-06  1.000E-06  1.000E-06  1.000E-06  1.000E-06
       1.000E-06  1.000E-06  1.000E-06  1.000E-06  1.000E-06  1.000E-06  1.000E-06  1.000E-06  1.000E-06  1.000E-06  1.000E-06
       1.000E-06  1.000E-06  1.000E-06  1.000E-06  1.000E-06  1.000E-06  1.000E-06  1.000E-06  1.000E-06  1.000E-06  1.000E-06
       1.000E-06  1.000E-06  1.000E-06  1.000E-06  1.000E-06  1.000E-06  1.000E-06  1.000E-06  1.000E-06  1.000E-06  1.000E-06
       1.000E-06  1.000E-06  1.000E-06  1.000E-06  1.000E-06  1.000E-06  1.000E-06  1.000E-06  1.000E-06  1.000E-06  1.000E-06
       1.000E-06  1.000E-06  1.000E-06  1.000E-06  1.000E-06  1.000E-06  1.000E-06  1.000E-06  1.000E-06  1.000E-06  1.000E-06
       1.000E-06  1.000E-06  1.000E-06  1.000E-06  1.000E-06  1.000E-06  1.000E-06  1.000E-06  1.000E-06  1.000E-06  1.000E-06
       1.000E-06  1.000E-06  1.000E-06  1.000E-06  1.000E-06  1.000E-06  1.000E-06  1.000E-06  1.000E-06  1.000E-06  1.000E-06
       1.000E-06  1.000E-06  1.000E-06  1.000E-06  1.000E-06  1.000E-06  1.000E-06  1.000E-06  1.000E-06  1.000E-06  1.000E-06
       1.000E-06  1.000E-06  1.000E-06  1.000E-06  1.000E-06  1.000E-06  1.000E-06  1.000E-06  1.000E-06  1.000E-06  1.000E-06
       1.000E-06  1.000E-06  1.000E-06  1.000E-06  1.000E-06  1.000E-06  1.000E-06  1.000E-06  1.000E-06  1.000E-06  1.000E-06
       1.000E-06  1.000E-06  1.000E-06  1.000E-06  1.000E-06  1.000E-06  1.000E-06  1.000E-06  1.000E-06  1.000E-06  1.000E-06
       1.000E-06  1.000E-06  1.000E-06  1.000E-06  1.000E-06  1.000E-06  1.000E-06  1.000E-06  1.000E-06  1.000E-06  1.000E-06
       1.000E-06  1.000E-06  1.000E-06  1.000E-06  1.000E-06  1.000E-06  1.000E-06  1.000E-06  1.000E-06  1.000E-06  1.000E-06
       1.000E-06  1.000E-06  1.000E-06  1.000E-06  1.000E-06  1.000E-06  1.000E-06  1.000E-06  1.000E-06  1.000E-06  1.000E-06
       1.000E-06  1.000E-06  1.000E-06  1.000E-06  1.000E-06  1.000E-06  1.000E-06  1.000E-06  1.000E-06  1.000E-06  1.000E-06
       1.000E-06  1.000E-06  1.000E-06  1.000E-06  1.000E-06  1.000E-06  1.000E-06  1.000E-06  1.000E-06  1.000E-06  1.000E-06
       1.000E-06  1.000E-06  1.000E-06  1.000E-06  1.000E-06  1.000E-06  1.000E-06  1.000E-06  1.000E-06  1.000E-06  1.000E-06
       1.000E-06  1.000E-06  1.000E-06  1.000E-06  1.000E-06  1.000E-06  1.000E-06  1.000E-06  1.000E-06  1.000E-06  1.000E-06
       1.000E-06  1.000E-06  1.000E-06  1.000E-06  1.000E-06  1.000E-06  1.000E-06  1.000E-06  1.000E-06  1.000E-06  1.000E-06
       1.000E-06  1.000E-06  1.000E-06  1.000E-06  1.000E-06  1.000E-06  1.000E-06  1.000E-06  1.000E-06  1.000E-06  1.000E-06
       1.000E-06  1.000E-06  1.000E-06  1.000E-06  1.000E-06  1.000E-06  1.000E-06  1.000E-06  1.000E-06  1.000E-06  1.000E-06
       1.000E-06  1.000E-06  1.000E-06  1.000E-06  1.000E-06  1.000E-06  1.000E-06  1.000E-06  1.000E-06  1.000E-06  1.000E-06
       1.000E-06  1.000E-06  1.000E-06  1.000E-06  1.000E-06  1.000E-06  1.000E-06  1.000E-06  1.000E-06  1.000E-06  1.000E-06
       1.000E-06  1.000E-06  1.000E-06  1.000E-06  1.000E-06  1.000E-06  1.000E-06  1.000E-06  1.000E-06  1.000E-06  1.000E-06
       1.000E-06  1.000E-06  1.000E-06  1.000E-06  1.000E-06  1.000E-06  1.000E-06  1.000E-06  1.000E-06  1.000E-06  1.000E-06
       1.000E-06  1.000E-06  1.000E-06  1.000E-06  1.000E-06  1.000E-06  1.000E-06  1.000E-06  1.000E-06  1.000E-06  1.000E-06
       1.000E-06  1.000E-06  1.000E-06  1.000E-06  1.000E-06  1.000E-06  1.000E-06  1.000E-06  1.000E-06  1.000E-06  1.000E-06
       1.000E-06  1.000E-06  1.000E-06  1.000E-06  1.000E-06  1.000E-06  1.000E-06  1.000E-06  1.000E-06  1.000E-06  1.000E-06
       1.000E-06  1.000E-06  1.000E-06  1.000E-06  1.000E-06  1.000E-06  1.000E-06  1.000E-06  1.000E-06  1.000E-06  1.000E-06
       1.000E-06  1.000E-06  1.000E-06  1.000E-06  1.000E-06  1.000E-06  1.000E-06  1.000E-06  1.000E-06  1.000E-06  1.000E-06
       1.000E-06  1.000E-06  1.000E-06  1.000E-06  1.000E-06  1.000E-06  1.000E-06  1.000E-06  1.000E-06  1.000E-06  1.000E-06
       1.000E-06  1.000E-06  1.000E-06  1.000E-06  1.000E-06  1.000E-06  1.000E-06  1.000E-06  1.000E-06  1.000E-06  1.000E-06
       1.000E-06  1.000E-06  1.000E-06  1.000E-06  1.000E-06  1.000E-06  1.000E-06  1.000E-06  1.000E-06  1.000E-06  1.000E-06
       1.000E-06  1.000E-06  1.000E-06  1.000E-06  1.000E-06  1.000E-06  1.000E-06  1.000E-06  1.000E-06  1.000E-06  1.000E-06
       1.000E-06  1.000E-06  1.000E-06  1.000E-06  1.000E-06  1.000E-06  1.000E-06  1.000E-06  1.000E-06  1.000E-06  1.000E-06
       1.000E-06  1.000E-06  1.000E-06  1.000E-06  1.000E-06  1.000E-06  1.000E-06  1.000E-06  1.000E-06  1.000E-06  1.000E-06
       1.000E-06  1.000E-06  1.000E-06  1.000E-06  1.000E-06  1.000E-06  1.000E-06  1.000E-06  1.000E-06  1.000E-06  1.000E-06
       1.000E-06  1.000E-06  1.000E-06  1.000E-06  1.000E-06  1.000E-06  1.000E-06  1.000E-06  1.000E-06  1.000E-06  1.000E-06
       1.000E-06  1.000E-06  1.000E-06  1.000E-06  1.000E-06  1.000E-06  1.000E-06  1.000E-06  1.000E-06  1.000E-06  1.000E-06
       1.000E-06  1.000E-06  1.000E-06  1.000E-06  1.000E-06  1.000E-06  1.000E-06  1.000E-06  1.000E-06  1.000E-06  1.000E-06
       1.000E-06  1.000E-06  1.000E-06  1.000E-06  1.000E-06  1.000E-06  1.000E-06  1.000E-06  1.000E-06  1.000E-06  1.000E-06
       1.000E-06  1.000E-06  1.000E-06  1.000E-06  1.000E-06  1.000E-06  1.000E-06  1.000E-06  1.000E-06  1.000E-06  1.000E-06
       1.000E-06  1.000E-06  1.000E-06  1.000E-06  1.000E-06  1.000E-06  1.000E-06  1.000E-06  1.000E-06  1.000E-06  1.000E-06
       1.000E-06  1.000E-06  1.000E-06  1.000E-06  1.000E-06  1.000E-06  1.000E-06  1.000E-06  1.000E-06  1.000E-06  1.000E-06
       1.000E-06  1.000E-06  1.000E-06  1.000E-06  1.000E-06  1.000E-06  1.000E-06  1.000E-06  1.000E-06  1.000E-06  1.000E-06
       1.000E-06  1.000E-06  1.000E-06  1.000E-06  1.000E-06  1.000E-06  1.000E-06  1.000E-06  1.000E-06  1.000E-06  1.000E-06
       1.000E-06  1.000E-06  1.000E-06  1.000E-06  1.000E-06  1.000E-06  1.000E-06  1.000E-06  1.000E-06  1.000E-06  1.000E-06
       1.000E-06  1.000E-06  1.000E-06  1.000E-06  1.000E-06  1.000E-06  1.000E-06  1.000E-06  1.000E-06  1.000E-06  1.000E-06
       1.000E-06  1.000E-06  1.000E-06  1.000E-06  1.000E-06  1.000E-06  1.000E-06  1.000E-06  1.000E-06  1.000E-06  1.000E-06
       1.000E-06  1.000E-06  1.000E-06  1.000E-06  1.000E-06  1.000E-06  1.000E-06  1.000E-06  1.000E-06  1.000E-06  1.000E-06
       1.000E-06  1.000E-06  1.000E-06  1.000E-06  1.000E-06  1.000E-06  1.000E-06  1.000E-06  1.000E-06  1.000E-06  1.000E-06
       1.000E-06  1.000E-06  1.000E-06  1.000E-06  1.000E-06  1.000E-06  1.000E-06  1.000E-06  1.000E-06  1.000E-06  1.000E-06
       1.000E-06  1.000E-06  1.000E-06  1.000E-06  1.000E-06  1.000E-06  1.000E-06  1.000E-06  1.000E-06  1.000E-06  1.000E-06
       1.000E-06  1.000E-06  1.000E-06  1.000E-06  1.000E-06  1.000E-06  1.000E-06  1.000E-06  1.000E-06  1.000E-06  1.000E-06
       1.000E-06  1.000E-06  1.000E-06  1.000E-06  1.000E-06  1.000E-06  1.000E-06  1.000E-06  1.000E-06  1.000E-06  1.000E-06
       1.000E-06  1.000E-06  1.000E-06  1.000E-06  1.000E-06  1.000E-06  1.000E-06  1.000E-06  1.000E-06  1.000E-06  1.000E-06
       1.000E-06  1.000E-06  1.000E-06  1.000E-06  1.000E-06  1.000E-06  1.000E-06  1.000E-06  1.000E-06  1.000E-06  1.000E-06
       1.000E-06  1.000E-06  1.000E-06  1.000E-06  1.000E-06  1.000E-06  1.000E-06  1.000E-06  1.000E-06  1.000E-06  1.000E-06
       1.000E-06  1.000E-06  1.000E-06  1.000E-06  1.000E-06  1.000E-06  1.000E-06  1.000E-06  1.000E-06  1.000E-06  1.000E-06
       1.000E-06  1.000E-06  1.000E-06  1.000E-06  1.000E-06  1.000E-06  1.000E-06  1.000E-06  1.000E-06  1.000E-06  1.000E-06
       1.000E-06  1.000E-06  1.000E-06  1.000E-06  1.000E-06  1.000E-06  1.000E-06  1.000E-06  1.000E-06  1.000E-06  1.000E-06
       1.000E-06  1.000E-06  1.000E-06  1.000E-06  1.000E-06  1.000E-06  1.000E-06  1.000E-06  1.000E-06  1.000E-06  1.000E-06
       1.000E-06  1.000E-06  1.000E-06  1.000E-06  1.000E-06  1.000E-06  1.000E-06  1.000E-06  1.000E-06  1.000E-06  1.000E-06
       1.000E-06  1.000E-06  1.000E-06  1.000E-06  1.000E-06  1.000E-06  1.000E-06  1.000E-06  1.000E-06  1.000E-06  1.000E-06
       1.000E-06  1.000E-06  1.000E-06  1.000E-06  1.000E-06  1.000E-06  1.000E-06  1.000E-06  1.000E-06  1.000E-06  1.000E-06
       1.000E-06  1.000E-06  1.000E-06  1.000E-06  1.000E-06  1.000E-06  1.000E-06  1.000E-06  1.000E-06  1.000E-06  1.000E-06
       1.000E-06  1.000E-06  1.000E-06  1.000E-06  1.000E-06  1.000E-06  1.000E-06  1.000E-06  1.000E-06  1.000E-06  1.000E-06
       1.000E-06  1.000E-06  1.000E-06  1.000E-06  1.000E-06  1.000E-06  1.000E-06  1.000E-06  1.000E-06  1.000E-06  1.000E-06
       1.000E-06  1.000E-06  1.000E-06  1.000E-06  1.000E-06  1.000E-06  1.000E-06  1.000E-06  1.000E-06  1.000E-06  1.000E-06
       1.000E-06  1.000E-06  1.000E-06  1.000E-06  1.000E-06  1.000E-06  1.000E-06  1.000E-06  1.000E-06  1.000E-06  1.000E-06
       1.000E-06  1.000E-06  1.000E-06  1.000E-06  1.000E-06  1.000E-06  1.000E-06  1.000E-06  1.000E-06  1.000E-06  1.000E-06
       1.000E-06  1.000E-06  1.000E-06  1.000E-06  1.000E-06  1.000E-06  1.000E-06  1.000E-06  1.000E-06  1.000E-06  1.000E-06
       1.000E-06  1.000E-06  1.000E-06  1.000E-06  1.000E-06  1.000E-06  1.000E-06  1.000E-06  1.000E-06  1.000E-06  1.000E-06
       1.000E-06  1.000E-06  1.000E-06  1.000E-06  1.000E-06  1.000E-06  1.000E-06  1.000E-06  1.000E-06  1.000E-06  1.000E-06
       1.000E-06  1.000E-06  1.000E-06  1.000E-06  1.000E-06  1.000E-06  1.000E-06  1.000E-06  1.000E-06  1.000E-06  1.000E-06
       1.000E-06  1.000E-06  1.000E-06  1.000E-06  1.000E-06  1.000E-06  1.000E-06  1.000E-06  1.000E-06  1.000E-06  1.000E-06
       1.000E-06  1.000E-06  1.000E-06  1.000E-06  1.000E-06  1.000E-06  1.000E-06  1.000E-06  1.000E-06  1.000E-06  1.000E-06
       1.000E-06  1.000E-06  1.000E-06  1.000E-06  1.000E-06  1.000E-06  1.000E-06  1.000E-06  1.000E-06  1.000E-06  1.000E-06
       1.000E-06  1.000E-06  1.000E-06  1.000E-06  1.000E-06  1.000E-06  1.000E-06  1.000E-06  1.000E-06  1.000E-06  1.000E-06
       1.000E-06  1.000E-06  1.000E-06  1.000E-06  1.000E-06  1.000E-06  1.000E-06  1.000E-06  1.000E-06  1.000E-06  1.000E-06
       1.000E-06  1.000E-06  1.000E-06  1.000E-06  1.000E-06  1.000E-06  1.000E-06  1.000E-06  1.000E-06  1.000E-06  1.000E-06
       1.000E-06  1.000E-06  1.000E-06  1.000E-06  1.000E-06  1.000E-06  1.000E-06  1.000E-06  1.000E-06  1.000E-06  1.000E-06
       1.000E-06  1.000E-06  1.000E-06  1.000E-06  1.000E-06  1.000E-06  1.000E-06  1.000E-06  1.000E-06  1.000E-06  1.000E-06
       1.000E-06  1.000E-06  1.000E-06  1.000E-06  1.000E-06  1.000E-06  1.000E-06  1.000E-06  1.000E-06  1.000E-06  1.000E-06
       1.000E-06  1.000E-06  1.000E-06  1.000E-06  1.000E-06  1.000E-06  1.000E-06  1.000E-06  1.000E-06  1.000E-06  1.000E-06
       1.000E-06  1.000E-06  1.000E-06  1.000E-06  1.000E-06  1.000E-06  1.000E-06  1.000E-06  1.000E-06  1.000E-06  1.000E-06
       1.000E-06  1.000E-06  1.000E-06  1.000E-06  1.000E-06  1.000E-06  1.000E-06  1.000E-06  1.000E-06  1.000E-06  1.000E-06
       1.000E-06  1.000E-06  1.000E-06  1.000E-06  1.000E-06  1.000E-06  1.000E-06  1.000E-06  1.000E-06  1.000E-06  1.000E-06
       1.000E-06  1.000E-06  1.000E-06  1.000E-06  1.000E-06  1.000E-06  1.000E-06  1.000E-06  1.000E-06  1.000E-06  1.000E-06
       1.000E-06  1.000E-06  1.000E-06  1.000E-06  1.000E-06  1.000E-06  1.000E-06  1.000E-06  1.000E-06  1.000E-06  1.000E-06
       1.000E-06  1.000E-06  1.000E-06  1.000E-06  1.000E-06  1.000E-06  1.000E-06  1.000E-06  1.000E-06  1.000E-06  1.000E-06
       1.000E-06  1.000E-06  1.000E-06  1.000E-06  1.000E-06  1.000E-06  1.000E-06  1.000E-06  1.000E-06  1.000E-06  1.000E-06
       1.000E-06  1.000E-06  1.000E-06  1.000E-06  1.000E-06  1.000E-06  1.000E-06  1.000E-06  1.000E-06  1.000E-06  1.000E-06
       1.000E-06  1.000E-06  1.000E-06  1.000E-06  1.000E-06  1.000E-06  1.000E-06  1.000E-06  1.000E-06  1.000E-06  1.000E-06
       1.000E-06  1.000E-06  1.000E-06  1.000E-06  1.000E-06  1.000E-06  1.000E-06  1.000E-06  1.000E-06  1.000E-06  1.000E-06
       1.000E-06  1.000E-06  1.000E-06  1.000E-06  1.000E-06  1.000E-06  1.000E-06  1.000E-06  1.000E-06  1.000E-06  1.000E-06
       1.000E-06  1.000E-06  1.000E-06  1.000E-06  1.000E-06  1.000E-06  1.000E-06  1.000E-06  1.000E-06  1.000E-06  1.000E-06
       1.000E-06  1.000E-06  1.000E-06  1.000E-06  1.000E-06  1.000E-06  1.000E-06  1.000E-06  1.000E-06  1.000E-06  1.000E-06
       1.000E-06  1.000E-06  1.000E-06  1.000E-06  1.000E-06  1.000E-06  1.000E-06  1.000E-06  1.000E-06  1.000E-06  1.000E-06
       1.000E-06  1.000E-06  1.000E-06  1.000E-06  1.000E-06  1.000E-06  1.000E-06  1.000E-06  1.000E-06  1.000E-06  1.000E-06
       1.000E-06  1.000E-06  1.000E-06  1.000E-06  1.000E-06  1.000E-06  1.000E-06  1.000E-06  1.000E-06  1.000E-06  1.000E-06
       1.000E-06  1.000E-06  1.000E-06  1.000E-06  1.000E-06  1.000E-06  1.000E-06  1.000E-06  1.000E-06  1.000E-06  1.000E-06
       1.000E-06  1.000E-06  1.000E-06  1.000E-06  1.000E-06  1.000E-06  1.000E-06  1.000E-06  1.000E-06  1.000E-06  1.000E-06
       1.000E-06  1.000E-06  1.000E-06  1.000E-06  1.000E-06  1.000E-06  1.000E-06  1.000E-06  1.000E-06  1.000E-06  1.000E-06
       1.000E-06  1.000E-06  1.000E-06  1.000E-06  1.000E-06  1.000E-06  1.000E-06  1.000E-06  1.000E-06  1.000E-06  1.000E-06
       1.000E-06  1.000E-06  1.000E-06  1.000E-06  1.000E-06  1.000E-06  1.000E-06  1.000E-06  1.000E-06  1.000E-06  1.000E-06
       1.000E-06  1.000E-06  1.000E-06  1.000E-06  1.000E-06  1.000E-06  1.000E-06  1.000E-06  1.000E-06  1.000E-06  1.000E-06
       1.000E-06  1.000E-06  1.000E-06  1.000E-06  1.000E-06  1.000E-06  1.000E-06  1.000E-06  1.000E-06  1.000E-06  1.000E-06
       1.000E-06  1.000E-06  1.000E-06  1.000E-06  1.000E-06  1.000E-06  1.000E-06  1.000E-06  1.000E-06  1.000E-06  1.000E-06
       1.000E-06  1.000E-06  1.000E-06  1.000E-06  1.000E-06  1.000E-06  1.000E-06  1.000E-06  1.000E-06  1.000E-06  1.000E-06
       1.000E-06  1.000E-06  1.000E-06  1.000E-06  1.000E-06  1.000E-06  1.000E-06  1.000E-06  1.000E-06  1.000E-06  1.000E-06
       1.000E-06  1.000E-06  1.000E-06  1.000E-06  1.000E-06  1.000E-06  1.000E-06  1.000E-06  1.000E-06  1.000E-06  1.000E-06
       1.000E-06  1.000E-06  1.000E-06  1.000E-06  1.000E-06  1.000E-06  1.000E-06  1.000E-06  1.000E-06  1.000E-06  1.000E-06
       1.000E-06  1.000E-06  1.000E-06  1.000E-06  1.000E-06  1.000E-06  1.000E-06  1.000E-06  1.000E-06  1.000E-06  1.000E-06
       1.000E-06  1.000E-06  1.000E-06  1.000E-06  1.000E-06  1.000E-06  1.000E-06  1.000E-06  1.000E-06  1.000E-06  1.000E-06
       1.000E-06  1.000E-06  1.000E-06  1.000E-06  1.000E-06  1.000E-06  1.000E-06  1.000E-06  1.000E-06  1.000E-06  1.000E-06
       1.000E-06  1.000E-06  1.000E-06  1.000E-06  1.000E-06  1.000E-06  1.000E-06  1.000E-06  1.000E-06  1.000E-06  1.000E-06
       1.000E-06  1.000E-06  1.000E-06  1.000E-06  1.000E-06  1.000E-06  1.000E-06  1.000E-06  1.000E-06  1.000E-06  1.000E-06
       1.000E-06  1.000E-06  1.000E-06  1.000E-06  1.000E-06  1.000E-06  1.000E-06  1.000E-06  1.000E-06  1.000E-06  1.000E-06
       1.000E-06  1.000E-06  1.000E-06  1.000E-06  1.000E-06  1.000E-06  1.000E-06  1.000E-06  1.000E-06  1.000E-06  1.000E-06
       1.000E-06  1.000E-06  1.000E-06  1.000E-06  1.000E-06  1.000E-06  1.000E-06  1.000E-06  1.000E-06  1.000E-06  1.000E-06
       1.000E-06  1.000E-06  1.000E-06  1.000E-06  1.000E-06  1.000E-06  1.000E-06  1.000E-06  1.000E-06  1.000E-06  1.000E-06
       1.000E-06  1.000E-06  1.000E-06  1.000E-06  1.000E-06  1.000E-06  1.000E-06  1.000E-06  1.000E-06  1.000E-06  1.000E-06
       1.000E-06  1.000E-06  1.000E-06  1.000E-06  1.000E-06  1.000E-06  1.000E-06  1.000E-06  1.000E-06  1.000E-06  1.000E-06
       1.000E-06  1.000E-06  1.000E-06  1.000E-06  1.000E-06  1.000E-06  1.000E-06  1.000E-06  1.000E-06  1.000E-06  1.000E-06
       1.000E-06  1.000E-06  1.000E-06  1.000E-06  1.000E-06  1.000E-06  1.000E-06  1.000E-06  1.000E-06  1.000E-06  1.000E-06
       1.000E-06  1.000E-06  1.000E-06  1.000E-06  1.000E-06  1.000E-06  1.000E-06  1.000E-06  1.000E-06  1.000E-06  1.000E-06
       1.000E-06  1.000E-06  1.000E-06  1.000E-06  1.000E-06  1.000E-06  1.000E-06  1.000E-06  1.000E-06  1.000E-06  1.000E-06
       1.000E-06  1.000E-06  1.000E-06  1.000E-06  1.000E-06  1.000E-06  1.000E-06  1.000E-06  1.000E-06  1.000E-06  1.000E-06
       1.000E-06  1.000E-06  1.000E-06  1.000E-06  1.000E-06  1.000E-06  1.000E-06  1.000E-06  1.000E-06  1.000E-06  1.000E-06
       1.000E-06  1.000E-06  1.000E-06  1.000E-06  1.000E-06  1.000E-06  1.000E-06  1.000E-06  1.000E-06  1.000E-06  1.000E-06
       1.000E-06  1.000E-06  1.000E-06  1.000E-06  1.000E-06  1.000E-06  1.000E-06  1.000E-06  1.000E-06  1.000E-06  1.000E-06
       1.000E-06  1.000E-06  1.000E-06  1.000E-06  1.000E-06  1.000E-06  1.000E-06  1.000E-06  1.000E-06  1.000E-06  1.000E-06
       1.000E-06  1.000E-06  1.000E-06  1.000E-06  1.000E-06  1.000E-06  1.000E-06  1.000E-06  1.000E-06  1.000E-06  1.000E-06
       1.000E-06  1.000E-06  1.000E-06  1.000E-06  1.000E-06  1.000E-06  1.000E-06  1.000E-06  1.000E-06  1.000E-06  1.000E-06
       1.000E-06  1.000E-06  1.000E-06  1.000E-06  1.000E-06  1.000E-06  1.000E-06  1.000E-06  1.000E-06  1.000E-06  1.000E-06
       1.000E-06  1.000E-06  1.000E-06  1.000E-06  1.000E-06  1.000E-06  1.000E-06  1.000E-06  1.000E-06  1.000E-06  1.000E-06
       1.000E-06  1.000E-06  1.000E-06  1.000E-06  1.000E-06  1.000E-06  1.000E-06  1.000E-06  1.000E-06  1.000E-06  1.000E-06
       1.000E-06  1.000E-06  1.000E-06  1.000E-06  1.000E-06  1.000E-06  1.000E-06  1.000E-06  1.000E-06  1.000E-06  1.000E-06
       1.000E-06  1.000E-06  1.000E-06  1.000E-06  1.000E-06  1.000E-06  1.000E-06  1.000E-06  1.000E-06  1.000E-06  1.000E-06
       1.000E-06  1.000E-06  1.000E-06  1.000E-06  1.000E-06  1.000E-06  1.000E-06  1.000E-06  1.000E-06  1.000E-06  1.000E-06
       1.000E-06  1.000E-06  1.000E-06  1.000E-06  1.000E-06  1.000E-06  1.000E-06  1.000E-06  1.000E-06  1.000E-06  1.000E-06
       1.000E-06  1.000E-06  1.000E-06  1.000E-06  1.000E-06  1.000E-06  1.000E-06  1.000E-06  1.000E-06  1.000E-06  1.000E-06
       1.000E-06  1.000E-06  1.000E-06  1.000E-06  1.000E-06  1.000E-06  1.000E-06  1.000E-06  1.000E-06  1.000E-06  1.000E-06
       1.000E-06  1.000E-06  1.000E-06  1.000E-06  1.000E-06  1.000E-06  1.000E-06  1.000E-06  1.000E-06  1.000E-06  1.000E-06
       1.000E-06  1.000E-06  1.000E-06  1.000E-06  1.000E-06  1.000E-06  1.000E-06  1.000E-06  1.000E-06  1.000E-06  1.000E-06
       1.000E-06  1.000E-06  1.000E-06  1.000E-06  1.000E-06  1.000E-06  1.000E-06  1.000E-06  1.000E-06  1.000E-06  1.000E-06
       1.000E-06  1.000E-06  1.000E-06  1.000E-06  1.000E-06  1.000E-06  1.000E-06  1.000E-06  1.000E-06  1.000E-06  1.000E-06
       1.000E-06  1.000E-06  1.000E-06  1.000E-06  1.000E-06  1.000E-06  1.000E-06  1.000E-06  1.000E-06  1.000E-06  1.000E-06
       1.000E-06  1.000E-06  1.000E-06  1.000E-06  1.000E-06  1.000E-06  1.000E-06  1.000E-06  1.000E-06  1.000E-06  1.000E-06
       1.000E-06  1.000E-06  1.000E-06  1.000E-06  1.000E-06  1.000E-06  1.000E-06  1.000E-06  1.000E-06  1.000E-06  1.000E-06
       1.000E-06  1.000E-06  1.000E-06  1.000E-06  1.000E-06  1.000E-06  1.000E-06  1.000E-06  1.000E-06  1.000E-06  1.000E-06
       1.000E-06  1.000E-06  1.000E-06  1.000E-06  1.000E-06  1.000E-06  1.000E-06  1.000E-06  1.000E-06  1.000E-06  1.000E-06
       1.000E-06  1.000E-06  1.000E-06  1.000E-06  1.000E-06  1.000E-06  1.000E-06  1.000E-06  1.000E-06  1.000E-06  1.000E-06
       1.000E-06  1.000E-06  1.000E-06  1.000E-06  1.000E-06  1.000E-06  1.000E-06  1.000E-06  1.000E-06  1.000E-06  1.000E-06
       1.000E-06  1.000E-06  1.000E-06  1.000E-06  1.000E-06  1.000E-06  1.000E-06  1.000E-06  1.000E-06  1.000E-06  1.000E-06
       1.000E-06  1.000E-06  1.000E-06  1.000E-06  1.000E-06  1.000E-06  1.000E-06  1.000E-06  1.000E-06  1.000E-06  1.000E-06
       1.000E-06  1.000E-06  1.000E-06  1.000E-06  1.000E-06  1.000E-06  1.000E-06  1.000E-06  1.000E-06  1.000E-06  1.000E-06
       1.000E-06  1.000E-06  1.000E-06  1.000E-06  1.000E-06  1.000E-06  1.000E-06  1.000E-06  1.000E-06  1.000E-06  1.000E-06
       1.000E-06  1.000E-06  1.000E-06  1.000E-06  1.000E-06  1.000E-06  1.000E-06  1.000E-06  1.000E-06  1.000E-06  1.000E-06
       1.000E-06  1.000E-06  1.000E-06  1.000E-06  1.000E-06  1.000E-06  1.000E-06  1.000E-06  1.000E-06  1.000E-06  1.000E-06
       1.000E-06  1.000E-06  1.000E-06  1.000E-06  1.000E-06  1.000E-06  1.000E-06  1.000E-06  1.000E-06  1.000E-06  1.000E-06
       1.000E-06  1.000E-06  1.000E-06  1.000E-06  1.000E-06  1.000E-06  1.000E-06  1.000E-06  1.000E-06  1.000E-06  1.000E-06
       1.000E-06  1.000E-06  1.000E-06  1.000E-06  1.000E-06  1.000E-06  1.000E-06  1.000E-06  1.000E-06  1.000E-06  1.000E-06
       1.000E-06  1.000E-06  1.000E-06  1.000E-06  1.000E-06  1.000E-06  1.000E-06  1.000E-06  1.000E-06  1.000E-06  1.000E-06
       1.000E-06  1.000E-06  1.000E-06  1.000E-06  1.000E-06  1.000E-06  1.000E-06  1.000E-06  1.000E-06  1.000E-06  1.000E-06
       1.000E-06  1.000E-06  1.000E-06  1.000E-06  1.000E-06  1.000E-06  1.000E-06  1.000E-06  1.000E-06  1.000E-06  1.000E-06
       1.000E-06  1.000E-06  1.000E-06  1.000E-06  1.000E-06  1.000E-06  1.000E-06  1.000E-06  1.000E-06  1.000E-06  1.000E-06
       1.000E-06  1.000E-06  1.000E-06  1.000E-06  1.000E-06  1.000E-06  1.000E-06  1.000E-06  1.000E-06  1.000E-06  1.000E-06
       1.000E-06  1.000E-06  1.000E-06  1.000E-06  1.000E-06  1.000E-06  1.000E-06  1.000E-06  1.000E-06  1.000E-06  1.000E-06
       1.000E-06  1.000E-06  1.000E-06  1.000E-06  1.000E-06  1.000E-06  1.000E-06  1.000E-06  1.000E-06  1.000E-06  1.000E-06
       1.000E-06  1.000E-06  1.000E-06  1.000E-06  1.000E-06  1.000E-06  1.000E-06  1.000E-06  1.000E-06  1.000E-06  1.000E-06
       1.000E-06  1.000E-06  1.000E-06  1.000E-06  1.000E-06  1.000E-06  1.000E-06  1.000E-06  1.000E-06  1.000E-06  1.000E-06
       1.000E-06  1.000E-06  1.000E-06  1.000E-06  1.000E-06  1.000E-06  1.000E-06  1.000E-06  1.000E-06  1.000E-06  1.000E-06
       1.000E-06  1.000E-06  1.000E-06  1.000E-06  1.000E-06  1.000E-06  1.000E-06  1.000E-06  1.000E-06  1.000E-06  1.000E-06
       1.000E-06  1.000E-06  1.000E-06  1.000E-06  1.000E-06  1.000E-06  1.000E-06  1.000E-06  1.000E-06  1.000E-06  1.000E-06
       1.000E-06  1.000E-06  1.000E-06  1.000E-06  1.000E-06  1.000E-06  1.000E-06  1.000E-06  1.000E-06  1.000E-06  1.000E-06
       1.000E-06  1.000E-06  1.000E-06  1.000E-06  1.000E-06  1.000E-06  1.000E-06  1.000E-06  1.000E-06  1.000E-06  1.000E-06
       1.000E-06  1.000E-06  1.000E-06  1.000E-06  1.000E-06  1.000E-06  1.000E-06  1.000E-06  1.000E-06  1.000E-06  1.000E-06
       1.000E-06  1.000E-06  1.000E-06  1.000E-06  1.000E-06  1.000E-06  1.000E-06  1.000E-06  1.000E-06  1.000E-06  1.000E-06
       1.000E-06  1.000E-06  1.000E-06  1.000E-06  1.000E-06  1.000E-06  1.000E-06  1.000E-06  1.000E-06  1.000E-06  1.000E-06
       1.000E-06  1.000E-06  1.000E-06  1.000E-06  1.000E-06  1.000E-06  1.000E-06  1.000E-06  1.000E-06  1.000E-06  1.000E-06
       1.000E-06  1.000E-06  1.000E-06  1.000E-06  1.000E-06  1.000E-06  1.000E-06  1.000E-06  1.000E-06  1.000E-06  1.000E-06
       1.000E-06  1.000E-06  1.000E-06  1.000E-06  1.000E-06  1.000E-06  1.000E-06  1.000E-06  1.000E-06  1.000E-06  1.000E-06
       1.000E-06  1.000E-06  1.000E-06  1.000E-06  1.000E-06  1.000E-06  1.000E-06  1.000E-06  1.000E-06  1.000E-06  1.000E-06
       1.000E-06  1.000E-06  1.000E-06  1.000E-06  1.000E-06  1.000E-06  1.000E-06  1.000E-06  1.000E-06  1.000E-06  1.000E-06
       1.000E-06  1.000E-06  1.000E-06  1.000E-06  1.000E-06  1.000E-06  1.000E-06  1.000E-06  1.000E-06  1.000E-06  1.000E-06
       1.000E-06  1.000E-06  1.000E-06  1.000E-06  1.000E-06  1.000E-06  1.000E-06  1.000E-06  1.000E-06  1.000E-06  1.000E-06
       1.000E-06  1.000E-06  1.000E-06  1.000E-06  1.000E-06  1.000E-06  1.000E-06  1.000E-06  1.000E-06  1.000E-06  1.000E-06
       1.000E-06  1.000E-06  1.000E-06  1.000E-06  1.000E-06  1.000E-06  1.000E-06  1.000E-06  1.000E-06  1.000E-06  1.000E-06
       1.000E-06  1.000E-06  1.000E-06  1.000E-06  1.000E-06  1.000E-06  1.000E-06  1.000E-06  1.000E-06  1.000E-06  1.000E-06
       1.000E-06  1.000E-06  1.000E-06  1.000E-06  1.000E-06  1.000E-06  1.000E-06  1.000E-06  1.000E-06  1.000E-06  1.000E-06
       1.000E-06  1.000E-06  1.000E-06  1.000E-06  1.000E-06  1.000E-06  1.000E-06  1.000E-06  1.000E-06  1.000E-06  1.000E-06
       1.000E-06  1.000E-06  1.000E-06  1.000E-06  1.000E-06  1.000E-06  1.000E-06  1.000E-06  1.000E-06  1.000E-06  1.000E-06
       1.000E-06  1.000E-06  1.000E-06  1.000E-06  1.000E-06  1.000E-06  1.000E-06  1.000E-06  1.000E-06  1.000E-06  1.000E-06
       1.000E-06  1.000E-06  1.000E-06  1.000E-06  1.000E-06  1.000E-06  1.000E-06  1.000E-06  1.000E-06  1.000E-06  1.000E-06
       1.000E-06  1.000E-06  1.000E-06  1.000E-06  1.000E-06  1.000E-06  1.000E-06  1.000E-06  1.000E-06  1.000E-06  1.000E-06
       1.000E-06  1.000E-06  1.000E-06  1.000E-06  1.000E-06  1.000E-06  1.000E-06  1.000E-06  1.000E-06  1.000E-06  1.000E-06
       1.000E-06  1.000E-06  1.000E-06  1.000E-06  1.000E-06  1.000E-06  1.000E-06  1.000E-06  1.000E-06  1.000E-06  1.000E-06
       1.000E-06  1.000E-06  1.000E-06  1.000E-06  1.000E-06  1.000E-06  1.000E-06  1.000E-06  1.000E-06  1.000E-06  1.000E-06
       1.000E-06  1.000E-06  1.000E-06  1.000E-06  1.000E-06  1.000E-06  1.000E-06  1.000E-06  1.000E-06  1.000E-06  1.000E-06
       1.000E-06  1.000E-06  1.000E-06  1.000E-06  1.000E-06  1.000E-06  1.000E-06  1.000E-06  1.000E-06  1.000E-06  1.000E-06
       1.000E-06  1.000E-06  1.000E-06  1.000E-06  1.000E-06  1.000E-06  1.000E-06  1.000E-06  1.000E-06  1.000E-06  1.000E-06
       1.000E-06  1.000E-06  1.000E-06  1.000E-06  1.000E-06  1.000E-06  1.000E-06  1.000E-06  1.000E-06  1.000E-06  1.000E-06
       1.000E-06  1.000E-06  1.000E-06  1.000E-06  1.000E-06  1.000E-06  1.000E-06  1.000E-06  1.000E-06  1.000E-06  1.000E-06
       1.000E-06  1.000E-06  1.000E-06  1.000E-06  1.000E-06  1.000E-06  1.000E-06  1.000E-06  1.000E-06  1.000E-06  1.000E-06
       1.000E-06  1.000E-06  1.000E-06  1.000E-06  1.000E-06  1.000E-06  1.000E-06  1.000E-06  1.000E-06  1.000E-06  1.000E-06
       1.000E-06  1.000E-06  1.000E-06  1.000E-06  1.000E-06  1.000E-06  1.000E-06  1.000E-06  1.000E-06  1.000E-06  1.000E-06
       1.000E-06  1.000E-06  1.000E-06  1.000E-06  1.000E-06  1.000E-06  1.000E-06  1.000E-06  1.000E-06  1.000E-06  1.000E-06
       1.000E-06  1.000E-06  1.000E-06  1.000E-06  1.000E-06  1.000E-06  1.000E-06  1.000E-06  1.000E-06  1.000E-06  1.000E-06
       1.000E-06  1.000E-06  1.000E-06  1.000E-06  1.000E-06  1.000E-06  1.000E-06  1.000E-06  1.000E-06  1.000E-06  1.000E-06
       1.000E-06  1.000E-06  1.000E-06  1.000E-06  1.000E-06  1.000E-06  1.000E-06  1.000E-06  1.000E-06  1.000E-06  1.000E-06
       1.000E-06  1.000E-06  1.000E-06  1.000E-06  1.000E-06  1.000E-06  1.000E-06  1.000E-06  1.000E-06  1.000E-06  1.000E-06
       1.000E-06  1.000E-06  1.000E-06  1.000E-06  1.000E-06  1.000E-06  1.000E-06  1.000E-06  1.000E-06  1.000E-06  1.000E-06
       1.000E-06  1.000E-06  1.000E-06  1.000E-06  1.000E-06  1.000E-06  1.000E-06  1.000E-06  1.000E-06  1.000E-06  1.000E-06
       1.000E-06  1.000E-06  1.000E-06  1.000E-06  1.000E-06  1.000E-06  1.000E-06  1.000E-06  1.000E-06  1.000E-06  1.000E-06
       1.000E-06  1.000E-06  1.000E-06  1.000E-06  1.000E-06  1.000E-06  1.000E-06  1.000E-06  1.000E-06  1.000E-06  1.000E-06
       1.000E-06  1.000E-06  1.000E-06  1.000E-06  1.000E-06  1.000E-06  1.000E-06  1.000E-06  1.000E-06  1.000E-06  1.000E-06
       1.000E-06  1.000E-06  1.000E-06  1.000E-06  1.000E-06  1.000E-06  1.000E-06  1.000E-06  1.000E-06  1.000E-06  1.000E-06
       1.000E-06  1.000E-06  1.000E-06  1.000E-06  1.000E-06  1.000E-06  1.000E-06  1.000E-06  1.000E-06  1.000E-06  1.000E-06
       1.000E-06  1.000E-06  1.000E-06  1.000E-06  1.000E-06  1.000E-06  1.000E-06  1.000E-06  1.000E-06  1.000E-06  1.000E-06
       1.000E-06  1.000E-06  1.000E-06  1.000E-06  1.000E-06  1.000E-06  1.000E-06  1.000E-06  1.000E-06  1.000E-06  1.000E-06
       1.000E-06  1.000E-06  1.000E-06  1.000E-06  1.000E-06  1.000E-06  1.000E-06  1.000E-06  1.000E-06  1.000E-06  1.000E-06
       1.000E-06  1.000E-06  1.000E-06  1.000E-06  1.000E-06  1.000E-06  1.000E-06  1.000E-06  1.000E-06  1.000E-06  1.000E-06
       1.000E-06  1.000E-06  1.000E-06  1.000E-06  1.000E-06  1.000E-06  1.000E-06  1.000E-06  1.000E-06  1.000E-06  1.000E-06
       1.000E-06  1.000E-06  1.000E-06  1.000E-06  1.000E-06  1.000E-06  1.000E-06  1.000E-06  1.000E-06  1.000E-06  1.000E-06
       1.000E-06  1.000E-06  1.000E-06  1.000E-06  1.000E-06  1.000E-06  1.000E-06  1.000E-06  1.000E-06  1.000E-06  1.000E-06
       1.000E-06  1.000E-06  1.000E-06  1.000E-06  1.000E-06  1.000E-06  1.000E-06  1.000E-06  1.000E-06  1.000E-06  1.000E-06
       1.000E-06  1.000E-06  1.000E-06  1.000E-06  1.000E-06  1.000E-06  1.000E-06  1.000E-06  1.000E-06  1.000E-06  1.000E-06
       1.000E-06  1.000E-06  1.000E-06  1.000E-06  1.000E-06  1.000E-06  1.000E-06  1.000E-06  1.000E-06  1.000E-06  1.000E-06
       1.000E-06  1.000E-06  1.000E-06  1.000E-06  1.000E-06  1.000E-06  1.000E-06  1.000E-06  1.000E-06  1.000E-06  1.000E-06
       1.000E-06  1.000E-06  1.000E-06  1.000E-06  1.000E-06  1.000E-06  1.000E-06  1.000E-06  1.000E-06  1.000E-06  1.000E-06
       1.000E-06  1.000E-06  1.000E-06  1.000E-06  1.000E-06  1.000E-06  1.000E-06  1.000E-06  1.000E-06  1.000E-06  1.000E-06
       1.000E-06  1.000E-06  1.000E-06  1.000E-06  1.000E-06  1.000E-06  1.000E-06  1.000E-06  1.000E-06  1.000E-06  1.000E-06
       1.000E-06  1.000E-06  1.000E-06  1.000E-06  1.000E-06  1.000E-06  1.000E-06  1.000E-06  1.000E-06  1.000E-06  1.000E-06
       1.000E-06  1.000E-06  1.000E-06  1.000E-06  1.000E-06  1.000E-06  1.000E-06  1.000E-06  1.000E-06  1.000E-06  1.000E-06
       1.000E-06  1.000E-06  1.000E-06  1.000E-06  1.000E-06  1.000E-06  1.000E-06  1.000E-06  1.000E-06  1.000E-06  1.000E-06
       1.000E-06  1.000E-06  1.000E-06  1.000E-06  1.000E-06  1.000E-06  1.000E-06  1.000E-06  1.000E-06  1.000E-06  1.000E-06
       1.000E-06  1.000E-06  1.000E-06  1.000E-06  1.000E-06  1.000E-06  1.000E-06  1.000E-06  1.000E-06  1.000E-06  1.000E-06
       1.000E-06  1.000E-06  1.000E-06  1.000E-06  1.000E-06  1.000E-06  1.000E-06  1.000E-06  1.000E-06  1.000E-06  1.000E-06
       1.000E-06  1.000E-06  1.000E-06  1.000E-06  1.000E-06  1.000E-06  1.000E-06  1.000E-06  1.000E-06  1.000E-06  1.000E-06
       1.000E-06  1.000E-06  1.000E-06  1.000E-06  1.000E-06  1.000E-06  1.000E-06  1.000E-06  1.000E-06  1.000E-06  1.000E-06
       1.000E-06  1.000E-06  1.000E-06  1.000E-06  1.000E-06  1.000E-06  1.000E-06  1.000E-06  1.000E-06  1.000E-06  1.000E-06
       1.000E-06  1.000E-06  1.000E-06  1.000E-06  1.000E-06  1.000E-06  1.000E-06  1.000E-06  1.000E-06  1.000E-06  1.000E-06
       1.000E-06  1.000E-06  1.000E-06  1.000E-06  1.000E-06  1.000E-06  1.000E-06  1.000E-06  1.000E-06  1.000E-06  1.000E-06
       1.000E-06  1.000E-06  1.000E-06  1.000E-06  1.000E-06  1.000E-06  1.000E-06  1.000E-06  1.000E-06  1.000E-06  1.000E-06
       1.000E-06  1.000E-06  1.000E-06  1.000E-06  1.000E-06  1.000E-06  1.000E-06  1.000E-06  1.000E-06  1.000E-06  1.000E-06
       1.000E-06  1.000E-06  1.000E-06  1.000E-06  1.000E-06  1.000E-06  1.000E-06  1.000E-06  1.000E-06  1.000E-06  1.000E-06
       1.000E-06  1.000E-06  1.000E-06  1.000E-06  1.000E-06  1.000E-06  1.000E-06  1.000E-06  1.000E-06  1.000E-06  1.000E-06
       1.000E-06  1.000E-06  1.000E-06  1.000E-06  1.000E-06  1.000E-06  1.000E-06  1.000E-06  1.000E-06  1.000E-06  1.000E-06
       1.000E-06  1.000E-06  1.000E-06  1.000E-06  1.000E-06  1.000E-06  1.000E-06  1.000E-06  1.000E-06  1.000E-06  1.000E-06
       1.000E-06  1.000E-06  1.000E-06  1.000E-06  1.000E-06  1.000E-06  1.000E-06  1.000E-06  1.000E-06  1.000E-06  1.000E-06
       1.000E-06  1.000E-06  1.000E-06  1.000E-06  1.000E-06  1.000E-06  1.000E-06  1.000E-06  1.000E-06  1.000E-06  1.000E-06
       1.000E-06  1.000E-06  1.000E-06  1.000E-06  1.000E-06  1.000E-06  1.000E-06  1.000E-06  1.000E-06  1.000E-06  1.000E-06
       1.000E-06  1.000E-06  1.000E-06  1.000E-06  1.000E-06  1.000E-06  1.000E-06  1.000E-06  1.000E-06  1.000E-06  1.000E-06
       1.000E-06  1.000E-06  1.000E-06  1.000E-06  1.000E-06  1.000E-06  1.000E-06  1.000E-06  1.000E-06  1.000E-06  1.000E-06
       1.000E-06  1.000E-06  1.000E-06  1.000E-06  1.000E-06  1.000E-06  1.000E-06  1.000E-06  1.000E-06  1.000E-06  1.000E-06
       1.000E-06  1.000E-06  1.000E-06  1.000E-06  1.000E-06  1.000E-06  1.000E-06  1.000E-06  1.000E-06  1.000E-06  1.000E-06
       1.000E-06  1.000E-06  1.000E-06  1.000E-06  1.000E-06  1.000E-06  1.000E-06  1.000E-06  1.000E-06  1.000E-06  1.000E-06
       1.000E-06  1.000E-06  1.000E-06  1.000E-06  1.000E-06  1.000E-06  1.000E-06  1.000E-06  1.000E-06  1.000E-06  1.000E-06
       1.000E-06  1.000E-06  1.000E-06  1.000E-06  1.000E-06  1.000E-06  1.000E-06  1.000E-06  1.000E-06  1.000E-06  1.000E-06
       1.000E-06  1.000E-06  1.000E-06  1.000E-06  1.000E-06  1.000E-06  1.000E-06  1.000E-06  1.000E-06  1.000E-06  1.000E-06
       1.000E-06  1.000E-06  1.000E-06  1.000E-06  1.000E-06  1.000E-06  1.000E-06  1.000E-06  1.000E-06  1.000E-06  1.000E-06

         SPECIFIC STORAGE FOR LAYER 3
       1.000E-06  1.000E-06  1.000E-06  1.000E-06  1.000E-06  1.000E-06  1.000E-06  1.000E-06  1.000E-06  1.000E-06  1.000E-06
       1.000E-06  1.000E-06  1.000E-06  1.000E-06  1.000E-06  1.000E-06  1.000E-06  1.000E-06  1.000E-06  1.000E-06  1.000E-06
       1.000E-06  1.000E-06  1.000E-06  1.000E-06  1.000E-06  1.000E-06  1.000E-06  1.000E-06  1.000E-06  1.000E-06  1.000E-06
       1.000E-06  1.000E-06  1.000E-06  1.000E-06  1.000E-06  1.000E-06  1.000E-06  1.000E-06  1.000E-06  1.000E-06  1.000E-06
       1.000E-06  1.000E-06  1.000E-06  1.000E-06  1.000E-06  1.000E-06  1.000E-06  1.000E-06  1.000E-06  1.000E-06  1.000E-06
       1.000E-06  1.000E-06  1.000E-06  1.000E-06  1.000E-06  1.000E-06  1.000E-06  1.000E-06  1.000E-06  1.000E-06  1.000E-06
       1.000E-06  1.000E-06  1.000E-06  1.000E-06  1.000E-06  1.000E-06  1.000E-06  1.000E-06  1.000E-06  1.000E-06  1.000E-06
       1.000E-06  1.000E-06  1.000E-06  1.000E-06  1.000E-06  1.000E-06  1.000E-06  1.000E-06  1.000E-06  1.000E-06  1.000E-06
       1.000E-06  1.000E-06  1.000E-06  1.000E-06  1.000E-06  1.000E-06  1.000E-06  1.000E-06  1.000E-06  1.000E-06  1.000E-06
       1.000E-06  1.000E-06  1.000E-06  1.000E-06  1.000E-06  1.000E-06  1.000E-06  1.000E-06  1.000E-06  1.000E-06  1.000E-06
       1.000E-06  1.000E-06  1.000E-06  1.000E-06  1.000E-06  1.000E-06  1.000E-06  1.000E-06  1.000E-06  1.000E-06  1.000E-06
       1.000E-06  1.000E-06  1.000E-06  1.000E-06  1.000E-06  1.000E-06  1.000E-06  1.000E-06  1.000E-06  1.000E-06  1.000E-06
       1.000E-06  1.000E-06  1.000E-06  1.000E-06  1.000E-06  1.000E-06  1.000E-06  1.000E-06  1.000E-06  1.000E-06  1.000E-06
       1.000E-06  1.000E-06  1.000E-06  1.000E-06  1.000E-06  1.000E-06  1.000E-06  1.000E-06  1.000E-06  1.000E-06  1.000E-06
       1.000E-06  1.000E-06  1.000E-06  1.000E-06  1.000E-06  1.000E-06  1.000E-06  1.000E-06  1.000E-06  1.000E-06  1.000E-06
       1.000E-06  1.000E-06  1.000E-06  1.000E-06  1.000E-06  1.000E-06  1.000E-06  1.000E-06  1.000E-06  1.000E-06  1.000E-06
       1.000E-06  1.000E-06  1.000E-06  1.000E-06  1.000E-06  1.000E-06  1.000E-06  1.000E-06  1.000E-06  1.000E-06  1.000E-06
       1.000E-06  1.000E-06  1.000E-06  1.000E-06  1.000E-06  1.000E-06  1.000E-06  1.000E-06  1.000E-06  1.000E-06  1.000E-06
       1.000E-06  1.000E-06  1.000E-06  1.000E-06  1.000E-06  1.000E-06  1.000E-06  1.000E-06  1.000E-06  1.000E-06  1.000E-06
       1.000E-06  1.000E-06  1.000E-06  1.000E-06  1.000E-06  1.000E-06  1.000E-06  1.000E-06  1.000E-06  1.000E-06  1.000E-06
       1.000E-06  1.000E-06  1.000E-06  1.000E-06  1.000E-06  1.000E-06  1.000E-06  1.000E-06  1.000E-06  1.000E-06  1.000E-06
       1.000E-06  1.000E-06  1.000E-06  1.000E-06  1.000E-06  1.000E-06  1.000E-06  1.000E-06  1.000E-06  1.000E-06  1.000E-06
       1.000E-06  1.000E-06  1.000E-06  1.000E-06  1.000E-06  1.000E-06  1.000E-06  1.000E-06  1.000E-06  1.000E-06  1.000E-06
       1.000E-06  1.000E-06  1.000E-06  1.000E-06  1.000E-06  1.000E-06  1.000E-06  1.000E-06  1.000E-06  1.000E-06  1.000E-06
       1.000E-06  1.000E-06  1.000E-06  1.000E-06  1.000E-06  1.000E-06  1.000E-06  1.000E-06  1.000E-06  1.000E-06  1.000E-06
       1.000E-06  1.000E-06  1.000E-06  1.000E-06  1.000E-06  1.000E-06  1.000E-06  1.000E-06  1.000E-06  1.000E-06  1.000E-06
       1.000E-06  1.000E-06  1.000E-06  1.000E-06  1.000E-06  1.000E-06  1.000E-06  1.000E-06  1.000E-06  1.000E-06  1.000E-06
       1.000E-06  1.000E-06  1.000E-06  1.000E-06  1.000E-06  1.000E-06  1.000E-06  1.000E-06  1.000E-06  1.000E-06  1.000E-06
       1.000E-06  1.000E-06  1.000E-06  1.000E-06  1.000E-06  1.000E-06  1.000E-06  1.000E-06  1.000E-06  1.000E-06  1.000E-06
       1.000E-06  1.000E-06  1.000E-06  1.000E-06  1.000E-06  1.000E-06  1.000E-06  1.000E-06  1.000E-06  1.000E-06  1.000E-06
       1.000E-06  1.000E-06  1.000E-06  1.000E-06  1.000E-06  1.000E-06  1.000E-06  1.000E-06  1.000E-06  1.000E-06  1.000E-06
       1.000E-06  1.000E-06  1.000E-06  1.000E-06  1.000E-06  1.000E-06  1.000E-06  1.000E-06  1.000E-06  1.000E-06  1.000E-06
       1.000E-06  1.000E-06  1.000E-06  1.000E-06  1.000E-06  1.000E-06  1.000E-06  1.000E-06  1.000E-06  1.000E-06  1.000E-06
       1.000E-06  1.000E-06  1.000E-06  1.000E-06  1.000E-06  1.000E-06  1.000E-06  1.000E-06  1.000E-06  1.000E-06  1.000E-06
       1.000E-06  1.000E-06  1.000E-06  1.000E-06  1.000E-06  1.000E-06  1.000E-06  1.000E-06  1.000E-06  1.000E-06  1.000E-06
       1.000E-06  1.000E-06  1.000E-06  1.000E-06  1.000E-06  1.000E-06  1.000E-06  1.000E-06  1.000E-06  1.000E-06  1.000E-06
       1.000E-06  1.000E-06  1.000E-06  1.000E-06  1.000E-06  1.000E-06  1.000E-06  1.000E-06  1.000E-06  1.000E-06  1.000E-06
       1.000E-06  1.000E-06  1.000E-06  1.000E-06  1.000E-06  1.000E-06  1.000E-06  1.000E-06  1.000E-06  1.000E-06  1.000E-06
       1.000E-06  1.000E-06  1.000E-06  1.000E-06  1.000E-06  1.000E-06  1.000E-06  1.000E-06  1.000E-06  1.000E-06  1.000E-06
       1.000E-06  1.000E-06  1.000E-06  1.000E-06  1.000E-06  1.000E-06  1.000E-06  1.000E-06  1.000E-06  1.000E-06  1.000E-06
       1.000E-06  1.000E-06  1.000E-06  1.000E-06  1.000E-06  1.000E-06  1.000E-06  1.000E-06  1.000E-06  1.000E-06  1.000E-06
       1.000E-06  1.000E-06  1.000E-06  1.000E-06  1.000E-06  1.000E-06  1.000E-06  1.000E-06  1.000E-06  1.000E-06  1.000E-06
       1.000E-06  1.000E-06  1.000E-06  1.000E-06  1.000E-06  1.000E-06  1.000E-06  1.000E-06  1.000E-06  1.000E-06  1.000E-06
       1.000E-06  1.000E-06  1.000E-06  1.000E-06  1.000E-06  1.000E-06  1.000E-06  1.000E-06  1.000E-06  1.000E-06  1.000E-06
       1.000E-06  1.000E-06  1.000E-06  1.000E-06  1.000E-06  1.000E-06  1.000E-06  1.000E-06  1.000E-06  1.000E-06  1.000E-06
       1.000E-06  1.000E-06  1.000E-06  1.000E-06  1.000E-06  1.000E-06  1.000E-06  1.000E-06  1.000E-06  1.000E-06  1.000E-06
       1.000E-06  1.000E-06  1.000E-06  1.000E-06  1.000E-06  1.000E-06  1.000E-06  1.000E-06  1.000E-06  1.000E-06  1.000E-06
       1.000E-06  1.000E-06  1.000E-06  1.000E-06  1.000E-06  1.000E-06  1.000E-06  1.000E-06  1.000E-06  1.000E-06  1.000E-06
       1.000E-06  1.000E-06  1.000E-06  1.000E-06  1.000E-06  1.000E-06  1.000E-06  1.000E-06  1.000E-06  1.000E-06  1.000E-06
       1.000E-06  1.000E-06  1.000E-06  1.000E-06  1.000E-06  1.000E-06  1.000E-06  1.000E-06  1.000E-06  1.000E-06  1.000E-06
       1.000E-06  1.000E-06  1.000E-06  1.000E-06  1.000E-06  1.000E-06  1.000E-06  1.000E-06  1.000E-06  1.000E-06  1.000E-06
       1.000E-06  1.000E-06  1.000E-06  1.000E-06  1.000E-06  1.000E-06  1.000E-06  1.000E-06  1.000E-06  1.000E-06  1.000E-06
       1.000E-06  1.000E-06  1.000E-06  1.000E-06  1.000E-06  1.000E-06  1.000E-06  1.000E-06  1.000E-06  1.000E-06  1.000E-06
       1.000E-06  1.000E-06  1.000E-06  1.000E-06  1.000E-06  1.000E-06  1.000E-06  1.000E-06  1.000E-06  1.000E-06  1.000E-06
       1.000E-06  1.000E-06  1.000E-06  1.000E-06  1.000E-06  1.000E-06  1.000E-06  1.000E-06  1.000E-06  1.000E-06  1.000E-06
       1.000E-06  1.000E-06  1.000E-06  1.000E-06  1.000E-06  1.000E-06  1.000E-06  1.000E-06  1.000E-06  1.000E-06  1.000E-06
       1.000E-06  1.000E-06  1.000E-06  1.000E-06  1.000E-06  1.000E-06  1.000E-06  1.000E-06  1.000E-06  1.000E-06  1.000E-06
       1.000E-06  1.000E-06  1.000E-06  1.000E-06  1.000E-06  1.000E-06  1.000E-06  1.000E-06  1.000E-06  1.000E-06  1.000E-06
       1.000E-06  1.000E-06  1.000E-06  1.000E-06  1.000E-06  1.000E-06  1.000E-06  1.000E-06  1.000E-06  1.000E-06  1.000E-06
       1.000E-06  1.000E-06  1.000E-06  1.000E-06  1.000E-06  1.000E-06  1.000E-06  1.000E-06  1.000E-06  1.000E-06  1.000E-06
       1.000E-06  1.000E-06  1.000E-06  1.000E-06  1.000E-06  1.000E-06  1.000E-06  1.000E-06  1.000E-06  1.000E-06  1.000E-06
       1.000E-06  1.000E-06  1.000E-06  1.000E-06  1.000E-06  1.000E-06  1.000E-06  1.000E-06  1.000E-06  1.000E-06  1.000E-06
       1.000E-06  1.000E-06  1.000E-06  1.000E-06  1.000E-06  1.000E-06  1.000E-06  1.000E-06  1.000E-06  1.000E-06  1.000E-06
       1.000E-06  1.000E-06  1.000E-06  1.000E-06  1.000E-06  1.000E-06  1.000E-06  1.000E-06  1.000E-06  1.000E-06  1.000E-06
       1.000E-06  1.000E-06  1.000E-06  1.000E-06  1.000E-06  1.000E-06  1.000E-06  1.000E-06  1.000E-06  1.000E-06  1.000E-06
       1.000E-06  1.000E-06  1.000E-06  1.000E-06  1.000E-06  1.000E-06  1.000E-06  1.000E-06  1.000E-06  1.000E-06  1.000E-06
       1.000E-06  1.000E-06  1.000E-06  1.000E-06  1.000E-06  1.000E-06  1.000E-06  1.000E-06  1.000E-06  1.000E-06  1.000E-06
       1.000E-06  1.000E-06  1.000E-06  1.000E-06  1.000E-06  1.000E-06  1.000E-06  1.000E-06  1.000E-06  1.000E-06  1.000E-06
       1.000E-06  1.000E-06  1.000E-06  1.000E-06  1.000E-06  1.000E-06  1.000E-06  1.000E-06  1.000E-06  1.000E-06  1.000E-06
       1.000E-06  1.000E-06  1.000E-06  1.000E-06  1.000E-06  1.000E-06  1.000E-06  1.000E-06  1.000E-06  1.000E-06  1.000E-06
       1.000E-06  1.000E-06  1.000E-06  1.000E-06  1.000E-06  1.000E-06  1.000E-06  1.000E-06  1.000E-06  1.000E-06  1.000E-06
       1.000E-06  1.000E-06  1.000E-06  1.000E-06  1.000E-06  1.000E-06  1.000E-06  1.000E-06  1.000E-06  1.000E-06  1.000E-06
       1.000E-06  1.000E-06  1.000E-06  1.000E-06  1.000E-06  1.000E-06  1.000E-06  1.000E-06  1.000E-06  1.000E-06  1.000E-06
       1.000E-06  1.000E-06  1.000E-06  1.000E-06  1.000E-06  1.000E-06  1.000E-06  1.000E-06  1.000E-06  1.000E-06  1.000E-06
       1.000E-06  1.000E-06  1.000E-06  1.000E-06  1.000E-06  1.000E-06  1.000E-06  1.000E-06  1.000E-06  1.000E-06  1.000E-06
       1.000E-06  1.000E-06  1.000E-06  1.000E-06  1.000E-06  1.000E-06  1.000E-06  1.000E-06  1.000E-06  1.000E-06  1.000E-06
       1.000E-06  1.000E-06  1.000E-06  1.000E-06  1.000E-06  1.000E-06  1.000E-06  1.000E-06  1.000E-06  1.000E-06  1.000E-06
       1.000E-06  1.000E-06  1.000E-06  1.000E-06  1.000E-06  1.000E-06  1.000E-06  1.000E-06  1.000E-06  1.000E-06  1.000E-06
       1.000E-06  1.000E-06  1.000E-06  1.000E-06  1.000E-06  1.000E-06  1.000E-06  1.000E-06  1.000E-06  1.000E-06  1.000E-06
       1.000E-06  1.000E-06  1.000E-06  1.000E-06  1.000E-06  1.000E-06  1.000E-06  1.000E-06  1.000E-06  1.000E-06  1.000E-06
       1.000E-06  1.000E-06  1.000E-06  1.000E-06  1.000E-06  1.000E-06  1.000E-06  1.000E-06  1.000E-06  1.000E-06  1.000E-06
       1.000E-06  1.000E-06  1.000E-06  1.000E-06  1.000E-06  1.000E-06  1.000E-06  1.000E-06  1.000E-06  1.000E-06  1.000E-06
       1.000E-06  1.000E-06  1.000E-06  1.000E-06  1.000E-06  1.000E-06  1.000E-06  1.000E-06  1.000E-06  1.000E-06  1.000E-06
       1.000E-06  1.000E-06  1.000E-06  1.000E-06  1.000E-06  1.000E-06  1.000E-06  1.000E-06  1.000E-06  1.000E-06  1.000E-06
       1.000E-06  1.000E-06  1.000E-06  1.000E-06  1.000E-06  1.000E-06  1.000E-06  1.000E-06  1.000E-06  1.000E-06  1.000E-06
       1.000E-06  1.000E-06  1.000E-06  1.000E-06  1.000E-06  1.000E-06  1.000E-06  1.000E-06  1.000E-06  1.000E-06  1.000E-06
       1.000E-06  1.000E-06  1.000E-06  1.000E-06  1.000E-06  1.000E-06  1.000E-06  1.000E-06  1.000E-06  1.000E-06  1.000E-06
       1.000E-06  1.000E-06  1.000E-06  1.000E-06  1.000E-06  1.000E-06  1.000E-06  1.000E-06  1.000E-06  1.000E-06  1.000E-06
       1.000E-06  1.000E-06  1.000E-06  1.000E-06  1.000E-06  1.000E-06  1.000E-06  1.000E-06  1.000E-06  1.000E-06  1.000E-06
       1.000E-06  1.000E-06  1.000E-06  1.000E-06  1.000E-06  1.000E-06  1.000E-06  1.000E-06  1.000E-06  1.000E-06  1.000E-06
       1.000E-06  1.000E-06  1.000E-06  1.000E-06  1.000E-06  1.000E-06  1.000E-06  1.000E-06  1.000E-06  1.000E-06  1.000E-06
       1.000E-06  1.000E-06  1.000E-06  1.000E-06  1.000E-06  1.000E-06  1.000E-06  1.000E-06  1.000E-06  1.000E-06  1.000E-06
       1.000E-06  1.000E-06  1.000E-06  1.000E-06  1.000E-06  1.000E-06  1.000E-06  1.000E-06  1.000E-06  1.000E-06  1.000E-06
       1.000E-06  1.000E-06  1.000E-06  1.000E-06  1.000E-06  1.000E-06  1.000E-06  1.000E-06  1.000E-06  1.000E-06  1.000E-06
       1.000E-06  1.000E-06  1.000E-06  1.000E-06  1.000E-06  1.000E-06  1.000E-06  1.000E-06  1.000E-06  1.000E-06  1.000E-06
       1.000E-06  1.000E-06  1.000E-06  1.000E-06  1.000E-06  1.000E-06  1.000E-06  1.000E-06  1.000E-06  1.000E-06  1.000E-06
       1.000E-06  1.000E-06  1.000E-06  1.000E-06  1.000E-06  1.000E-06  1.000E-06  1.000E-06  1.000E-06  1.000E-06  1.000E-06
       1.000E-06  1.000E-06  1.000E-06  1.000E-06  1.000E-06  1.000E-06  1.000E-06  1.000E-06  1.000E-06  1.000E-06  1.000E-06
       1.000E-06  1.000E-06  1.000E-06  1.000E-06  1.000E-06  1.000E-06  1.000E-06  1.000E-06  1.000E-06  1.000E-06  1.000E-06
       1.000E-06  1.000E-06  1.000E-06  1.000E-06  1.000E-06  1.000E-06  1.000E-06  1.000E-06  1.000E-06  1.000E-06  1.000E-06
       1.000E-06  1.000E-06  1.000E-06  1.000E-06  1.000E-06  1.000E-06  1.000E-06  1.000E-06  1.000E-06  1.000E-06  1.000E-06
       1.000E-06  1.000E-06  1.000E-06  1.000E-06  1.000E-06  1.000E-06  1.000E-06  1.000E-06  1.000E-06  1.000E-06  1.000E-06
       1.000E-06  1.000E-06  1.000E-06  1.000E-06  1.000E-06  1.000E-06  1.000E-06  1.000E-06  1.000E-06  1.000E-06  1.000E-06
       1.000E-06  1.000E-06  1.000E-06  1.000E-06  1.000E-06  1.000E-06  1.000E-06  1.000E-06  1.000E-06  1.000E-06  1.000E-06
       1.000E-06  1.000E-06  1.000E-06  1.000E-06  1.000E-06  1.000E-06  1.000E-06  1.000E-06  1.000E-06  1.000E-06  1.000E-06
       1.000E-06  1.000E-06  1.000E-06  1.000E-06  1.000E-06  1.000E-06  1.000E-06  1.000E-06  1.000E-06  1.000E-06  1.000E-06
       1.000E-06  1.000E-06  1.000E-06  1.000E-06  1.000E-06  1.000E-06  1.000E-06  1.000E-06  1.000E-06  1.000E-06  1.000E-06
       1.000E-06  1.000E-06  1.000E-06  1.000E-06  1.000E-06  1.000E-06  1.000E-06  1.000E-06  1.000E-06  1.000E-06  1.000E-06
       1.000E-06  1.000E-06  1.000E-06  1.000E-06  1.000E-06  1.000E-06  1.000E-06  1.000E-06  1.000E-06  1.000E-06  1.000E-06
       1.000E-06  1.000E-06  1.000E-06  1.000E-06  1.000E-06  1.000E-06  1.000E-06  1.000E-06  1.000E-06  1.000E-06  1.000E-06
       1.000E-06  1.000E-06  1.000E-06  1.000E-06  1.000E-06  1.000E-06  1.000E-06  1.000E-06  1.000E-06  1.000E-06  1.000E-06
       1.000E-06  1.000E-06  1.000E-06  1.000E-06  1.000E-06  1.000E-06  1.000E-06  1.000E-06  1.000E-06  1.000E-06  1.000E-06
       1.000E-06  1.000E-06  1.000E-06  1.000E-06  1.000E-06  1.000E-06  1.000E-06  1.000E-06  1.000E-06  1.000E-06  1.000E-06
       1.000E-06  1.000E-06  1.000E-06  1.000E-06  1.000E-06  1.000E-06  1.000E-06  1.000E-06  1.000E-06  1.000E-06  1.000E-06
       1.000E-06  1.000E-06  1.000E-06  1.000E-06  1.000E-06  1.000E-06  1.000E-06  1.000E-06  1.000E-06  1.000E-06  1.000E-06
       1.000E-06  1.000E-06  1.000E-06  1.000E-06  1.000E-06  1.000E-06  1.000E-06  1.000E-06  1.000E-06  1.000E-06  1.000E-06
       1.000E-06  1.000E-06  1.000E-06  1.000E-06  1.000E-06  1.000E-06  1.000E-06  1.000E-06  1.000E-06  1.000E-06  1.000E-06
       1.000E-06  1.000E-06  1.000E-06  1.000E-06  1.000E-06  1.000E-06  1.000E-06  1.000E-06  1.000E-06  1.000E-06  1.000E-06
       1.000E-06  1.000E-06  1.000E-06  1.000E-06  1.000E-06  1.000E-06  1.000E-06  1.000E-06  1.000E-06  1.000E-06  1.000E-06
       1.000E-06  1.000E-06  1.000E-06  1.000E-06  1.000E-06  1.000E-06  1.000E-06  1.000E-06  1.000E-06  1.000E-06  1.000E-06
       1.000E-06  1.000E-06  1.000E-06  1.000E-06  1.000E-06  1.000E-06  1.000E-06  1.000E-06  1.000E-06  1.000E-06  1.000E-06
       1.000E-06  1.000E-06  1.000E-06  1.000E-06  1.000E-06  1.000E-06  1.000E-06  1.000E-06  1.000E-06  1.000E-06  1.000E-06
       1.000E-06  1.000E-06  1.000E-06  1.000E-06  1.000E-06  1.000E-06  1.000E-06  1.000E-06  1.000E-06  1.000E-06  1.000E-06
       1.000E-06  1.000E-06  1.000E-06  1.000E-06  1.000E-06  1.000E-06  1.000E-06  1.000E-06  1.000E-06  1.000E-06  1.000E-06
       1.000E-06  1.000E-06  1.000E-06  1.000E-06  1.000E-06  1.000E-06  1.000E-06  1.000E-06  1.000E-06  1.000E-06  1.000E-06
       1.000E-06  1.000E-06  1.000E-06  1.000E-06  1.000E-06  1.000E-06  1.000E-06  1.000E-06  1.000E-06  1.000E-06  1.000E-06
       1.000E-06  1.000E-06  1.000E-06  1.000E-06  1.000E-06  1.000E-06  1.000E-06  1.000E-06  1.000E-06  1.000E-06  1.000E-06
       1.000E-06  1.000E-06  1.000E-06  1.000E-06  1.000E-06  1.000E-06  1.000E-06  1.000E-06  1.000E-06  1.000E-06  1.000E-06
       1.000E-06  1.000E-06  1.000E-06  1.000E-06  1.000E-06  1.000E-06  1.000E-06  1.000E-06  1.000E-06  1.000E-06  1.000E-06
       1.000E-06  1.000E-06  1.000E-06  1.000E-06  1.000E-06  1.000E-06  1.000E-06  1.000E-06  1.000E-06  1.000E-06  1.000E-06
       1.000E-06  1.000E-06  1.000E-06  1.000E-06  1.000E-06  1.000E-06  1.000E-06  1.000E-06  1.000E-06  1.000E-06  1.000E-06
       1.000E-06  1.000E-06  1.000E-06  1.000E-06  1.000E-06  1.000E-06  1.000E-06  1.000E-06  1.000E-06  1.000E-06  1.000E-06
       1.000E-06  1.000E-06  1.000E-06  1.000E-06  1.000E-06  1.000E-06  1.000E-06  1.000E-06  1.000E-06  1.000E-06  1.000E-06
       1.000E-06  1.000E-06  1.000E-06  1.000E-06  1.000E-06  1.000E-06  1.000E-06  1.000E-06  1.000E-06  1.000E-06  1.000E-06
       1.000E-06  1.000E-06  1.000E-06  1.000E-06  1.000E-06  1.000E-06  1.000E-06  1.000E-06  1.000E-06  1.000E-06  1.000E-06
       1.000E-06  1.000E-06  1.000E-06  1.000E-06  1.000E-06  1.000E-06  1.000E-06  1.000E-06  1.000E-06  1.000E-06  1.000E-06
       1.000E-06  1.000E-06  1.000E-06  1.000E-06  1.000E-06  1.000E-06  1.000E-06  1.000E-06  1.000E-06  1.000E-06  1.000E-06
       1.000E-06  1.000E-06  1.000E-06  1.000E-06  1.000E-06  1.000E-06  1.000E-06  1.000E-06  1.000E-06  1.000E-06  1.000E-06
       1.000E-06  1.000E-06  1.000E-06  1.000E-06  1.000E-06  1.000E-06  1.000E-06  1.000E-06  1.000E-06  1.000E-06  1.000E-06
       1.000E-06  1.000E-06  1.000E-06  1.000E-06  1.000E-06  1.000E-06  1.000E-06  1.000E-06  1.000E-06  1.000E-06  1.000E-06
       1.000E-06  1.000E-06  1.000E-06  1.000E-06  1.000E-06  1.000E-06  1.000E-06  1.000E-06  1.000E-06  1.000E-06  1.000E-06
       1.000E-06  1.000E-06  1.000E-06  1.000E-06  1.000E-06  1.000E-06  1.000E-06  1.000E-06  1.000E-06  1.000E-06  1.000E-06
       1.000E-06  1.000E-06  1.000E-06  1.000E-06  1.000E-06  1.000E-06  1.000E-06  1.000E-06  1.000E-06  1.000E-06  1.000E-06
       1.000E-06  1.000E-06  1.000E-06  1.000E-06  1.000E-06  1.000E-06  1.000E-06  1.000E-06  1.000E-06  1.000E-06  1.000E-06
       1.000E-06  1.000E-06  1.000E-06  1.000E-06  1.000E-06  1.000E-06  1.000E-06  1.000E-06  1.000E-06  1.000E-06  1.000E-06
       1.000E-06  1.000E-06  1.000E-06  1.000E-06  1.000E-06  1.000E-06  1.000E-06  1.000E-06  1.000E-06  1.000E-06  1.000E-06
       1.000E-06  1.000E-06  1.000E-06  1.000E-06  1.000E-06  1.000E-06  1.000E-06  1.000E-06  1.000E-06  1.000E-06  1.000E-06
       1.000E-06  1.000E-06  1.000E-06  1.000E-06  1.000E-06  1.000E-06  1.000E-06  1.000E-06  1.000E-06  1.000E-06  1.000E-06
       1.000E-06  1.000E-06  1.000E-06  1.000E-06  1.000E-06  1.000E-06  1.000E-06  1.000E-06  1.000E-06  1.000E-06  1.000E-06
       1.000E-06  1.000E-06  1.000E-06  1.000E-06  1.000E-06  1.000E-06  1.000E-06  1.000E-06  1.000E-06  1.000E-06  1.000E-06
       1.000E-06  1.000E-06  1.000E-06  1.000E-06  1.000E-06  1.000E-06  1.000E-06  1.000E-06  1.000E-06  1.000E-06  1.000E-06
       1.000E-06  1.000E-06  1.000E-06  1.000E-06  1.000E-06  1.000E-06  1.000E-06  1.000E-06  1.000E-06  1.000E-06  1.000E-06
       1.000E-06  1.000E-06  1.000E-06  1.000E-06  1.000E-06  1.000E-06  1.000E-06  1.000E-06  1.000E-06  1.000E-06  1.000E-06
       1.000E-06  1.000E-06  1.000E-06  1.000E-06  1.000E-06  1.000E-06  1.000E-06  1.000E-06  1.000E-06  1.000E-06  1.000E-06
       1.000E-06  1.000E-06  1.000E-06  1.000E-06  1.000E-06  1.000E-06  1.000E-06  1.000E-06  1.000E-06  1.000E-06  1.000E-06
       1.000E-06  1.000E-06  1.000E-06  1.000E-06  1.000E-06  1.000E-06  1.000E-06  1.000E-06  1.000E-06  1.000E-06  1.000E-06
       1.000E-06  1.000E-06  1.000E-06  1.000E-06  1.000E-06  1.000E-06  1.000E-06  1.000E-06  1.000E-06  1.000E-06  1.000E-06
       1.000E-06  1.000E-06  1.000E-06  1.000E-06  1.000E-06  1.000E-06  1.000E-06  1.000E-06  1.000E-06  1.000E-06  1.000E-06
       1.000E-06  1.000E-06  1.000E-06  1.000E-06  1.000E-06  1.000E-06  1.000E-06  1.000E-06  1.000E-06  1.000E-06  1.000E-06
       1.000E-06  1.000E-06  1.000E-06  1.000E-06  1.000E-06  1.000E-06  1.000E-06  1.000E-06  1.000E-06  1.000E-06  1.000E-06
       1.000E-06  1.000E-06  1.000E-06  1.000E-06  1.000E-06  1.000E-06  1.000E-06  1.000E-06  1.000E-06  1.000E-06  1.000E-06
       1.000E-06  1.000E-06  1.000E-06  1.000E-06  1.000E-06  1.000E-06  1.000E-06  1.000E-06  1.000E-06  1.000E-06  1.000E-06
       1.000E-06  1.000E-06  1.000E-06  1.000E-06  1.000E-06  1.000E-06  1.000E-06  1.000E-06  1.000E-06  1.000E-06  1.000E-06
       1.000E-06  1.000E-06  1.000E-06  1.000E-06  1.000E-06  1.000E-06  1.000E-06  1.000E-06  1.000E-06  1.000E-06  1.000E-06
       1.000E-06  1.000E-06  1.000E-06  1.000E-06  1.000E-06  1.000E-06  1.000E-06  1.000E-06  1.000E-06  1.000E-06  1.000E-06
       1.000E-06  1.000E-06  1.000E-06  1.000E-06  1.000E-06  1.000E-06  1.000E-06  1.000E-06  1.000E-06  1.000E-06  1.000E-06
       1.000E-06  1.000E-06  1.000E-06  1.000E-06  1.000E-06  1.000E-06  1.000E-06  1.000E-06  1.000E-06  1.000E-06  1.000E-06
       1.000E-06  1.000E-06  1.000E-06  1.000E-06  1.000E-06  1.000E-06  1.000E-06  1.000E-06  1.000E-06  1.000E-06  1.000E-06
       1.000E-06  1.000E-06  1.000E-06  1.000E-06  1.000E-06  1.000E-06  1.000E-06  1.000E-06  1.000E-06  1.000E-06  1.000E-06
       1.000E-06  1.000E-06  1.000E-06  1.000E-06  1.000E-06  1.000E-06  1.000E-06  1.000E-06  1.000E-06  1.000E-06  1.000E-06
       1.000E-06  1.000E-06  1.000E-06  1.000E-06  1.000E-06  1.000E-06  1.000E-06  1.000E-06  1.000E-06  1.000E-06  1.000E-06
       1.000E-06  1.000E-06  1.000E-06  1.000E-06  1.000E-06  1.000E-06  1.000E-06  1.000E-06  1.000E-06  1.000E-06  1.000E-06
       1.000E-06  1.000E-06  1.000E-06  1.000E-06  1.000E-06  1.000E-06  1.000E-06  1.000E-06  1.000E-06  1.000E-06  1.000E-06
       1.000E-06  1.000E-06  1.000E-06  1.000E-06  1.000E-06  1.000E-06  1.000E-06  1.000E-06  1.000E-06  1.000E-06  1.000E-06
       1.000E-06  1.000E-06  1.000E-06  1.000E-06  1.000E-06  1.000E-06  1.000E-06  1.000E-06  1.000E-06  1.000E-06  1.000E-06
       1.000E-06  1.000E-06  1.000E-06  1.000E-06  1.000E-06  1.000E-06  1.000E-06  1.000E-06  1.000E-06  1.000E-06  1.000E-06
       1.000E-06  1.000E-06  1.000E-06  1.000E-06  1.000E-06  1.000E-06  1.000E-06  1.000E-06  1.000E-06  1.000E-06  1.000E-06
       1.000E-06  1.000E-06  1.000E-06  1.000E-06  1.000E-06  1.000E-06  1.000E-06  1.000E-06  1.000E-06  1.000E-06  1.000E-06
       1.000E-06  1.000E-06  1.000E-06  1.000E-06  1.000E-06  1.000E-06  1.000E-06  1.000E-06  1.000E-06  1.000E-06  1.000E-06
       1.000E-06  1.000E-06  1.000E-06  1.000E-06  1.000E-06  1.000E-06  1.000E-06  1.000E-06  1.000E-06  1.000E-06  1.000E-06
       1.000E-06  1.000E-06  1.000E-06  1.000E-06  1.000E-06  1.000E-06  1.000E-06  1.000E-06  1.000E-06  1.000E-06  1.000E-06
       1.000E-06  1.000E-06  1.000E-06  1.000E-06  1.000E-06  1.000E-06  1.000E-06  1.000E-06  1.000E-06  1.000E-06  1.000E-06
       1.000E-06  1.000E-06  1.000E-06  1.000E-06  1.000E-06  1.000E-06  1.000E-06  1.000E-06  1.000E-06  1.000E-06  1.000E-06
       1.000E-06  1.000E-06  1.000E-06  1.000E-06  1.000E-06  1.000E-06  1.000E-06  1.000E-06  1.000E-06  1.000E-06  1.000E-06
       1.000E-06  1.000E-06  1.000E-06  1.000E-06  1.000E-06  1.000E-06  1.000E-06  1.000E-06  1.000E-06  1.000E-06  1.000E-06
       1.000E-06  1.000E-06  1.000E-06  1.000E-06  1.000E-06  1.000E-06  1.000E-06  1.000E-06  1.000E-06  1.000E-06  1.000E-06
       1.000E-06  1.000E-06  1.000E-06  1.000E-06  1.000E-06  1.000E-06  1.000E-06  1.000E-06  1.000E-06  1.000E-06  1.000E-06
       1.000E-06  1.000E-06  1.000E-06  1.000E-06  1.000E-06  1.000E-06  1.000E-06  1.000E-06  1.000E-06  1.000E-06  1.000E-06
       1.000E-06  1.000E-06  1.000E-06  1.000E-06  1.000E-06  1.000E-06  1.000E-06  1.000E-06  1.000E-06  1.000E-06  1.000E-06
       1.000E-06  1.000E-06  1.000E-06  1.000E-06  1.000E-06  1.000E-06  1.000E-06  1.000E-06  1.000E-06  1.000E-06  1.000E-06
       1.000E-06  1.000E-06  1.000E-06  1.000E-06  1.000E-06  1.000E-06  1.000E-06  1.000E-06  1.000E-06  1.000E-06  1.000E-06
       1.000E-06  1.000E-06  1.000E-06  1.000E-06  1.000E-06  1.000E-06  1.000E-06  1.000E-06  1.000E-06  1.000E-06  1.000E-06
       1.000E-06  1.000E-06  1.000E-06  1.000E-06  1.000E-06  1.000E-06  1.000E-06  1.000E-06  1.000E-06  1.000E-06  1.000E-06
       1.000E-06  1.000E-06  1.000E-06  1.000E-06  1.000E-06  1.000E-06  1.000E-06  1.000E-06  1.000E-06  1.000E-06  1.000E-06
       1.000E-06  1.000E-06  1.000E-06  1.000E-06  1.000E-06  1.000E-06  1.000E-06  1.000E-06  1.000E-06  1.000E-06  1.000E-06
       1.000E-06  1.000E-06  1.000E-06  1.000E-06  1.000E-06  1.000E-06  1.000E-06  1.000E-06  1.000E-06  1.000E-06  1.000E-06
       1.000E-06  1.000E-06  1.000E-06  1.000E-06  1.000E-06  1.000E-06  1.000E-06  1.000E-06  1.000E-06  1.000E-06  1.000E-06
       1.000E-06  1.000E-06  1.000E-06  1.000E-06  1.000E-06  1.000E-06  1.000E-06  1.000E-06  1.000E-06  1.000E-06  1.000E-06
       1.000E-06  1.000E-06  1.000E-06  1.000E-06  1.000E-06  1.000E-06  1.000E-06  1.000E-06  1.000E-06  1.000E-06  1.000E-06
       1.000E-06  1.000E-06  1.000E-06  1.000E-06  1.000E-06  1.000E-06  1.000E-06  1.000E-06  1.000E-06  1.000E-06  1.000E-06
       1.000E-06  1.000E-06  1.000E-06  1.000E-06  1.000E-06  1.000E-06  1.000E-06  1.000E-06  1.000E-06  1.000E-06  1.000E-06
       1.000E-06  1.000E-06  1.000E-06  1.000E-06  1.000E-06  1.000E-06  1.000E-06  1.000E-06  1.000E-06  1.000E-06  1.000E-06
       1.000E-06  1.000E-06  1.000E-06  1.000E-06  1.000E-06  1.000E-06  1.000E-06  1.000E-06  1.000E-06  1.000E-06  1.000E-06
       1.000E-06  1.000E-06  1.000E-06  1.000E-06  1.000E-06  1.000E-06  1.000E-06  1.000E-06  1.000E-06  1.000E-06  1.000E-06
       1.000E-06  1.000E-06  1.000E-06  1.000E-06  1.000E-06  1.000E-06  1.000E-06  1.000E-06  1.000E-06  1.000E-06  1.000E-06
       1.000E-06  1.000E-06  1.000E-06  1.000E-06  1.000E-06  1.000E-06  1.000E-06  1.000E-06  1.000E-06  1.000E-06  1.000E-06
       1.000E-06  1.000E-06  1.000E-06  1.000E-06  1.000E-06  1.000E-06  1.000E-06  1.000E-06  1.000E-06  1.000E-06  1.000E-06
       1.000E-06  1.000E-06  1.000E-06  1.000E-06  1.000E-06  1.000E-06  1.000E-06  1.000E-06  1.000E-06  1.000E-06  1.000E-06
       1.000E-06  1.000E-06  1.000E-06  1.000E-06  1.000E-06  1.000E-06  1.000E-06  1.000E-06  1.000E-06  1.000E-06  1.000E-06
       1.000E-06  1.000E-06  1.000E-06  1.000E-06  1.000E-06  1.000E-06  1.000E-06  1.000E-06  1.000E-06  1.000E-06  1.000E-06
       1.000E-06  1.000E-06  1.000E-06  1.000E-06  1.000E-06  1.000E-06  1.000E-06  1.000E-06  1.000E-06  1.000E-06  1.000E-06
       1.000E-06  1.000E-06  1.000E-06  1.000E-06  1.000E-06  1.000E-06  1.000E-06  1.000E-06  1.000E-06  1.000E-06  1.000E-06
       1.000E-06  1.000E-06  1.000E-06  1.000E-06  1.000E-06  1.000E-06  1.000E-06  1.000E-06  1.000E-06  1.000E-06  1.000E-06
       1.000E-06  1.000E-06  1.000E-06  1.000E-06  1.000E-06  1.000E-06  1.000E-06  1.000E-06  1.000E-06  1.000E-06  1.000E-06
       1.000E-06  1.000E-06  1.000E-06  1.000E-06  1.000E-06  1.000E-06  1.000E-06  1.000E-06  1.000E-06  1.000E-06  1.000E-06
       1.000E-06  1.000E-06  1.000E-06  1.000E-06  1.000E-06  1.000E-06  1.000E-06  1.000E-06  1.000E-06  1.000E-06  1.000E-06
       1.000E-06  1.000E-06  1.000E-06  1.000E-06  1.000E-06  1.000E-06  1.000E-06  1.000E-06  1.000E-06  1.000E-06  1.000E-06
       1.000E-06  1.000E-06  1.000E-06  1.000E-06  1.000E-06  1.000E-06  1.000E-06  1.000E-06  1.000E-06  1.000E-06  1.000E-06
       1.000E-06  1.000E-06  1.000E-06  1.000E-06  1.000E-06  1.000E-06  1.000E-06  1.000E-06  1.000E-06  1.000E-06  1.000E-06
       1.000E-06  1.000E-06  1.000E-06  1.000E-06  1.000E-06  1.000E-06  1.000E-06  1.000E-06  1.000E-06  1.000E-06  1.000E-06
       1.000E-06  1.000E-06  1.000E-06  1.000E-06  1.000E-06  1.000E-06  1.000E-06  1.000E-06  1.000E-06  1.000E-06  1.000E-06
       1.000E-06  1.000E-06  1.000E-06  1.000E-06  1.000E-06  1.000E-06  1.000E-06  1.000E-06  1.000E-06  1.000E-06  1.000E-06
       1.000E-06  1.000E-06  1.000E-06  1.000E-06  1.000E-06  1.000E-06  1.000E-06  1.000E-06  1.000E-06  1.000E-06  1.000E-06
       1.000E-06  1.000E-06  1.000E-06  1.000E-06  1.000E-06  1.000E-06  1.000E-06  1.000E-06  1.000E-06  1.000E-06  1.000E-06
       1.000E-06  1.000E-06  1.000E-06  1.000E-06  1.000E-06  1.000E-06  1.000E-06  1.000E-06  1.000E-06  1.000E-06  1.000E-06
       1.000E-06  1.000E-06  1.000E-06  1.000E-06  1.000E-06  1.000E-06  1.000E-06  1.000E-06  1.000E-06  1.000E-06  1.000E-06
       1.000E-06  1.000E-06  1.000E-06  1.000E-06  1.000E-06  1.000E-06  1.000E-06  1.000E-06  1.000E-06  1.000E-06  1.000E-06
       1.000E-06  1.000E-06  1.000E-06  1.000E-06  1.000E-06  1.000E-06  1.000E-06  1.000E-06  1.000E-06  1.000E-06  1.000E-06
       1.000E-06  1.000E-06  1.000E-06  1.000E-06  1.000E-06  1.000E-06  1.000E-06  1.000E-06  1.000E-06  1.000E-06  1.000E-06
       1.000E-06  1.000E-06  1.000E-06  1.000E-06  1.000E-06  1.000E-06  1.000E-06  1.000E-06  1.000E-06  1.000E-06  1.000E-06
       1.000E-06  1.000E-06  1.000E-06  1.000E-06  1.000E-06  1.000E-06  1.000E-06  1.000E-06  1.000E-06  1.000E-06  1.000E-06
       1.000E-06  1.000E-06  1.000E-06  1.000E-06  1.000E-06  1.000E-06  1.000E-06  1.000E-06  1.000E-06  1.000E-06  1.000E-06
       1.000E-06  1.000E-06  1.000E-06  1.000E-06  1.000E-06  1.000E-06  1.000E-06  1.000E-06  1.000E-06  1.000E-06  1.000E-06
       1.000E-06  1.000E-06  1.000E-06  1.000E-06  1.000E-06  1.000E-06  1.000E-06  1.000E-06  1.000E-06  1.000E-06  1.000E-06
       1.000E-06  1.000E-06  1.000E-06  1.000E-06  1.000E-06  1.000E-06  1.000E-06  1.000E-06  1.000E-06  1.000E-06  1.000E-06
       1.000E-06  1.000E-06  1.000E-06  1.000E-06  1.000E-06  1.000E-06  1.000E-06  1.000E-06  1.000E-06  1.000E-06  1.000E-06
       1.000E-06  1.000E-06  1.000E-06  1.000E-06  1.000E-06  1.000E-06  1.000E-06  1.000E-06  1.000E-06  1.000E-06  1.000E-06
       1.000E-06  1.000E-06  1.000E-06  1.000E-06  1.000E-06  1.000E-06  1.000E-06  1.000E-06  1.000E-06  1.000E-06  1.000E-06
       1.000E-06  1.000E-06  1.000E-06  1.000E-06  1.000E-06  1.000E-06  1.000E-06  1.000E-06  1.000E-06  1.000E-06  1.000E-06
       1.000E-06  1.000E-06  1.000E-06  1.000E-06  1.000E-06  1.000E-06  1.000E-06  1.000E-06  1.000E-06  1.000E-06  1.000E-06
       1.000E-06  1.000E-06  1.000E-06  1.000E-06  1.000E-06  1.000E-06  1.000E-06  1.000E-06  1.000E-06  1.000E-06  1.000E-06
       1.000E-06  1.000E-06  1.000E-06  1.000E-06  1.000E-06  1.000E-06  1.000E-06  1.000E-06  1.000E-06  1.000E-06  1.000E-06
       1.000E-06  1.000E-06  1.000E-06  1.000E-06  1.000E-06  1.000E-06  1.000E-06  1.000E-06  1.000E-06  1.000E-06  1.000E-06
       1.000E-06  1.000E-06  1.000E-06  1.000E-06  1.000E-06  1.000E-06  1.000E-06  1.000E-06  1.000E-06  1.000E-06  1.000E-06
       1.000E-06  1.000E-06  1.000E-06  1.000E-06  1.000E-06  1.000E-06  1.000E-06  1.000E-06  1.000E-06  1.000E-06  1.000E-06
       1.000E-06  1.000E-06  1.000E-06  1.000E-06  1.000E-06  1.000E-06  1.000E-06  1.000E-06  1.000E-06  1.000E-06  1.000E-06
       1.000E-06  1.000E-06  1.000E-06  1.000E-06  1.000E-06  1.000E-06  1.000E-06  1.000E-06  1.000E-06  1.000E-06  1.000E-06
       1.000E-06  1.000E-06  1.000E-06  1.000E-06  1.000E-06  1.000E-06  1.000E-06  1.000E-06  1.000E-06  1.000E-06  1.000E-06
       1.000E-06  1.000E-06  1.000E-06  1.000E-06  1.000E-06  1.000E-06  1.000E-06  1.000E-06  1.000E-06  1.000E-06  1.000E-06
       1.000E-06  1.000E-06  1.000E-06  1.000E-06  1.000E-06  1.000E-06  1.000E-06  1.000E-06  1.000E-06  1.000E-06  1.000E-06
       1.000E-06  1.000E-06  1.000E-06  1.000E-06  1.000E-06  1.000E-06  1.000E-06  1.000E-06  1.000E-06  1.000E-06  1.000E-06
       1.000E-06  1.000E-06  1.000E-06  1.000E-06  1.000E-06  1.000E-06  1.000E-06  1.000E-06  1.000E-06  1.000E-06  1.000E-06
       1.000E-06  1.000E-06  1.000E-06  1.000E-06  1.000E-06  1.000E-06  1.000E-06  1.000E-06  1.000E-06  1.000E-06  1.000E-06
       1.000E-06  1.000E-06  1.000E-06  1.000E-06  1.000E-06  1.000E-06  1.000E-06  1.000E-06  1.000E-06  1.000E-06  1.000E-06
       1.000E-06  1.000E-06  1.000E-06  1.000E-06  1.000E-06  1.000E-06  1.000E-06  1.000E-06  1.000E-06  1.000E-06  1.000E-06
       1.000E-06  1.000E-06  1.000E-06  1.000E-06  1.000E-06  1.000E-06  1.000E-06  1.000E-06  1.000E-06  1.000E-06  1.000E-06
       1.000E-06  1.000E-06  1.000E-06  1.000E-06  1.000E-06  1.000E-06  1.000E-06  1.000E-06  1.000E-06  1.000E-06  1.000E-06
       1.000E-06  1.000E-06  1.000E-06  1.000E-06  1.000E-06  1.000E-06  1.000E-06  1.000E-06  1.000E-06  1.000E-06  1.000E-06
       1.000E-06  1.000E-06  1.000E-06  1.000E-06  1.000E-06  1.000E-06  1.000E-06  1.000E-06  1.000E-06  1.000E-06  1.000E-06
       1.000E-06  1.000E-06  1.000E-06  1.000E-06  1.000E-06  1.000E-06  1.000E-06  1.000E-06  1.000E-06  1.000E-06  1.000E-06
       1.000E-06  1.000E-06  1.000E-06  1.000E-06  1.000E-06  1.000E-06  1.000E-06  1.000E-06  1.000E-06  1.000E-06  1.000E-06
       1.000E-06  1.000E-06  1.000E-06  1.000E-06  1.000E-06  1.000E-06  1.000E-06  1.000E-06  1.000E-06  1.000E-06  1.000E-06
       1.000E-06  1.000E-06  1.000E-06  1.000E-06  1.000E-06  1.000E-06  1.000E-06  1.000E-06  1.000E-06  1.000E-06  1.000E-06
       1.000E-06  1.000E-06  1.000E-06  1.000E-06  1.000E-06  1.000E-06  1.000E-06  1.000E-06  1.000E-06  1.000E-06  1.000E-06
       1.000E-06  1.000E-06  1.000E-06  1.000E-06  1.000E-06  1.000E-06  1.000E-06  1.000E-06  1.000E-06  1.000E-06  1.000E-06
       1.000E-06  1.000E-06  1.000E-06  1.000E-06  1.000E-06  1.000E-06  1.000E-06  1.000E-06  1.000E-06  1.000E-06  1.000E-06
       1.000E-06  1.000E-06  1.000E-06  1.000E-06  1.000E-06  1.000E-06  1.000E-06  1.000E-06  1.000E-06  1.000E-06  1.000E-06
       1.000E-06  1.000E-06  1.000E-06  1.000E-06  1.000E-06  1.000E-06  1.000E-06  1.000E-06  1.000E-06  1.000E-06  1.000E-06
       1.000E-06  1.000E-06  1.000E-06  1.000E-06  1.000E-06  1.000E-06  1.000E-06  1.000E-06  1.000E-06  1.000E-06  1.000E-06
       1.000E-06  1.000E-06  1.000E-06  1.000E-06  1.000E-06  1.000E-06  1.000E-06  1.000E-06  1.000E-06  1.000E-06  1.000E-06
       1.000E-06  1.000E-06  1.000E-06  1.000E-06  1.000E-06  1.000E-06  1.000E-06  1.000E-06  1.000E-06  1.000E-06  1.000E-06
       1.000E-06  1.000E-06  1.000E-06  1.000E-06  1.000E-06  1.000E-06  1.000E-06  1.000E-06  1.000E-06  1.000E-06  1.000E-06
       1.000E-06  1.000E-06  1.000E-06  1.000E-06  1.000E-06  1.000E-06  1.000E-06  1.000E-06  1.000E-06  1.000E-06  1.000E-06
       1.000E-06  1.000E-06  1.000E-06  1.000E-06  1.000E-06  1.000E-06  1.000E-06  1.000E-06  1.000E-06  1.000E-06  1.000E-06
       1.000E-06  1.000E-06  1.000E-06  1.000E-06  1.000E-06  1.000E-06  1.000E-06  1.000E-06  1.000E-06  1.000E-06  1.000E-06
       1.000E-06  1.000E-06  1.000E-06  1.000E-06  1.000E-06  1.000E-06  1.000E-06  1.000E-06  1.000E-06  1.000E-06  1.000E-06
       1.000E-06  1.000E-06  1.000E-06  1.000E-06  1.000E-06  1.000E-06  1.000E-06  1.000E-06  1.000E-06  1.000E-06  1.000E-06
       1.000E-06  1.000E-06  1.000E-06  1.000E-06  1.000E-06  1.000E-06  1.000E-06  1.000E-06  1.000E-06  1.000E-06  1.000E-06
       1.000E-06  1.000E-06  1.000E-06  1.000E-06  1.000E-06  1.000E-06  1.000E-06  1.000E-06  1.000E-06  1.000E-06  1.000E-06
       1.000E-06  1.000E-06  1.000E-06  1.000E-06  1.000E-06  1.000E-06  1.000E-06  1.000E-06  1.000E-06  1.000E-06  1.000E-06
       1.000E-06  1.000E-06  1.000E-06  1.000E-06  1.000E-06  1.000E-06  1.000E-06  1.000E-06  1.000E-06  1.000E-06  1.000E-06
       1.000E-06  1.000E-06  1.000E-06  1.000E-06  1.000E-06  1.000E-06  1.000E-06  1.000E-06  1.000E-06  1.000E-06  1.000E-06
       1.000E-06  1.000E-06  1.000E-06  1.000E-06  1.000E-06  1.000E-06  1.000E-06  1.000E-06  1.000E-06  1.000E-06  1.000E-06
       1.000E-06  1.000E-06  1.000E-06  1.000E-06  1.000E-06  1.000E-06  1.000E-06  1.000E-06  1.000E-06  1.000E-06  1.000E-06
       1.000E-06  1.000E-06  1.000E-06  1.000E-06  1.000E-06  1.000E-06  1.000E-06  1.000E-06  1.000E-06  1.000E-06  1.000E-06

           SPECIFIC YIELD =  0.2000000     FOR LAYER 1

           SPECIFIC YIELD =  0.2000000     FOR LAYER 2

           SPECIFIC YIELD =  0.2000000     FOR LAYER 3
 END PROCESSING GRIDDATA

The observation utility is active for "EXPERIMENTAL"
 # File generated by Flopy version 3.3.5 on 11/03/2021 at 13:12:39.

Processing observation options:

Text output number of digits of precision set to: 10
The PRINT_INPUT option has been specified.


 OBSERVATIONS READ FROM FILE "experimental.obs"
 ----------------------------------------------------------------------------------------------------------------------------------------------------------------------------------------------------------------------------
 NAME                                     TYPE                                       TIME         LOCATION DATA                              OUTPUT FILENAME                                                                 
 ----------------------------------------------------------------------------------------------------------------------------------------------------------------------------------------------------------------------------
 B9-2                                     CONTINUOUS  HEAD                           ALL TIMES    "1 351  1 352"                             head.obs.csv                                                                    
 B10-2                                    CONTINUOUS  HEAD                           ALL TIMES    "1 1254  1 1255"                           head.obs.csv                                                                    
 B12-1                                    CONTINUOUS  HEAD                           ALL TIMES    "1 1387  1 1388"                           head.obs.csv                                                                    
 B16-1                                    CONTINUOUS  HEAD                           ALL TIMES    "1 1981  1 1982"                           head.obs.csv                                                                    
 B2-1                                     CONTINUOUS  HEAD                           ALL TIMES    "1 1752  1 1753"                           head.obs.csv                                                                    
 B22-1                                    CONTINUOUS  HEAD                           ALL TIMES    "1 1473  1 1474"                           head.obs.csv                                                                    
 B27                                      CONTINUOUS  HEAD                           ALL TIMES    "1 1388  1 1389"                           head.obs.csv                                                                    
 B29                                      CONTINUOUS  HEAD                           ALL TIMES    "1 1557  1 1558"                           head.obs.csv                                                                    
 KB1-1                                    CONTINUOUS  HEAD                           ALL TIMES    "1 2347  1 2348"                           head.obs.csv                                                                    
 KB4-3                                    CONTINUOUS  HEAD                           ALL TIMES    "1 1279  1 1280"                           head.obs.csv                                                                    
 NI1301-1                                 CONTINUOUS  HEAD                           ALL TIMES    "1 1475  1 1476"                           head.obs.csv                                                                    
 NI1302-1                                 CONTINUOUS  HEAD                           ALL TIMES    "1 1474  1 1475"                           head.obs.csv                                                                    
 NI1403-1                                 CONTINUOUS  HEAD                           ALL TIMES    "1 2356  1 2357"                           head.obs.csv                                                                    
 NI1405-1                                 CONTINUOUS  HEAD                           ALL TIMES    "1 2196  1 2197"                           head.obs.csv                                                                    
 NI1407-1                                 CONTINUOUS  HEAD                           ALL TIMES    "1 1471  1 1472"                           head.obs.csv                                                                    
 NI1408-1                                 CONTINUOUS  HEAD                           ALL TIMES    "1 1384  1 1385"                           head.obs.csv                                                                    
 NI1409-1                                 CONTINUOUS  HEAD                           ALL TIMES    "1 1678  1 1679"                           head.obs.csv                                                                    
 NI1410-1                                 CONTINUOUS  HEAD                           ALL TIMES    "1 1680  1 1681"                           head.obs.csv                                                                    
 NI1411-1                                 CONTINUOUS  HEAD                           ALL TIMES    "1 1569  1 1570"                           head.obs.csv                                                                    
 NI1412-1                                 CONTINUOUS  HEAD                           ALL TIMES    "1 2355  1 2356"                           head.obs.csv                                                                    
 NI1413-1                                 CONTINUOUS  HEAD                           ALL TIMES    "1 2450  1 2451"                           head.obs.csv                                                                    
 NI1501-1                                 CONTINUOUS  HEAD                           ALL TIMES    "1 1297  1 1298"                           head.obs.csv                                                                    
 NI1502-2                                 CONTINUOUS  HEAD                           ALL TIMES    "1 1147  1 1148"                           head.obs.csv                                                                    
 NI1503-2                                 CONTINUOUS  HEAD                           ALL TIMES    "1 1231  1 1232"                           head.obs.csv                                                                    
 NI1504-2                                 CONTINUOUS  HEAD                           ALL TIMES    "1 1310  1 1311"                           head.obs.csv                                                                    
 NI1505-1                                 CONTINUOUS  HEAD                           ALL TIMES    "1 1308  1 1309"                           head.obs.csv                                                                    
 NI1506-1                                 CONTINUOUS  HEAD                           ALL TIMES    "1 1387  1 1388"                           head.obs.csv                                                                    
 NI15-O1                                  CONTINUOUS  HEAD                           ALL TIMES    "1 2437  1 2438"                           head.obs.csv                                                                    
 NI15-O44                                 CONTINUOUS  HEAD                           ALL TIMES    "1 2251  1 2252"                           head.obs.csv                                                                    
 NI15-O46                                 CONTINUOUS  HEAD                           ALL TIMES    "1 1546  1 1547"                           head.obs.csv                                                                    
 NI15-O47                                 CONTINUOUS  HEAD                           ALL TIMES    "1 1639  1 1640"                           head.obs.csv                                                                    
 NI15-O48                                 CONTINUOUS  HEAD                           ALL TIMES    "1 947  1 948"                             head.obs.csv                                                                    
 NI1601-1                                 CONTINUOUS  HEAD                           ALL TIMES    "1 2255  1 2256"                           head.obs.csv                                                                    
 NI1602-1                                 CONTINUOUS  HEAD                           ALL TIMES    "1 2108  1 2109"                           head.obs.csv                                                                    
 NI1603-1                                 CONTINUOUS  HEAD                           ALL TIMES    "1 2040  1 2041"                           head.obs.csv                                                                    
 NI1605-1                                 CONTINUOUS  HEAD                           ALL TIMES    "1 2357  1 2358"                           head.obs.csv                                                                    
 NI1606-1                                 CONTINUOUS  HEAD                           ALL TIMES    "1 1887  1 1888"                           head.obs.csv                                                                    
 NI1607-1                                 CONTINUOUS  HEAD                           ALL TIMES    "1 2437  1 2438"                           head.obs.csv                                                                    
 NI1608-1                                 CONTINUOUS  HEAD                           ALL TIMES    "1 2516  1 2517"                           head.obs.csv                                                                    
 NI1609-2                                 CONTINUOUS  HEAD                           ALL TIMES    "1 2520  1 2521"                           head.obs.csv                                                                    
 NI1610-2                                 CONTINUOUS  HEAD                           ALL TIMES    "1 2518  1 2519"                           head.obs.csv                                                                    
 NI1611-1                                 CONTINUOUS  HEAD                           ALL TIMES    "1 2521  1 2522"                           head.obs.csv                                                                    
 NI1612-1                                 CONTINUOUS  HEAD                           ALL TIMES    "1 2340  1 2341"                           head.obs.csv                                                                    
 NI1613-1                                 CONTINUOUS  HEAD                           ALL TIMES    "1 2040  1 2041"                           head.obs.csv                                                                    
 NI1703-1                                 CONTINUOUS  HEAD                           ALL TIMES    "1 2439  1 2440"                           head.obs.csv                                                                    
 NI1704-1                                 CONTINUOUS  HEAD                           ALL TIMES    "1 1033  1 1034"                           head.obs.csv                                                                    
 NI1705-1                                 CONTINUOUS  HEAD                           ALL TIMES    "1 1198  1 1199"                           head.obs.csv                                                                    
 NI1712-1                                 CONTINUOUS  HEAD                           ALL TIMES    "1 2523  1 2524"                           head.obs.csv                                                                    
 NI1801-1                                 CONTINUOUS  HEAD                           ALL TIMES    "1 1113  1 1114"                           head.obs.csv                                                                    
 NI1802-1                                 CONTINUOUS  HEAD                           ALL TIMES    "1 1113  1 1114"                           head.obs.csv                                                                    
 NI1803-1                                 CONTINUOUS  HEAD                           ALL TIMES    "1 1197  1 1198"                           head.obs.csv                                                                    
 NI1804-1                                 CONTINUOUS  HEAD                           ALL TIMES    "1 1277  1 1278"                           head.obs.csv                                                                    
 B9-4                                     CONTINUOUS  HEAD                           ALL TIMES    "2 351  2 352"                             head.obs.csv                                                                    
 B10-4                                    CONTINUOUS  HEAD                           ALL TIMES    "2 1254  2 1255"                           head.obs.csv                                                                    
 B13-1                                    CONTINUOUS  HEAD                           ALL TIMES    "2 1475  2 1476"                           head.obs.csv                                                                    
 B14-1                                    CONTINUOUS  HEAD                           ALL TIMES    "2 1682  2 1683"                           head.obs.csv                                                                    
 B15-1                                    CONTINUOUS  HEAD                           ALL TIMES    "2 1391  2 1392"                           head.obs.csv                                                                    
 B20-1                                    CONTINUOUS  HEAD                           ALL TIMES    "2 1308  2 1309"                           head.obs.csv                                                                    
 B21-1                                    CONTINUOUS  HEAD                           ALL TIMES    "2 1474  2 1475"                           head.obs.csv                                                                    
 B2-2                                     CONTINUOUS  HEAD                           ALL TIMES    "2 1752  2 1753"                           head.obs.csv                                                                    
 B22-2                                    CONTINUOUS  HEAD                           ALL TIMES    "2 1473  2 1474"                           head.obs.csv                                                                    
 B26                                      CONTINUOUS  HEAD                           ALL TIMES    "2 1476  2 1477"                           head.obs.csv                                                                    
 B35                                      CONTINUOUS  HEAD                           ALL TIMES    "2 2260  2 2261"                           head.obs.csv                                                                    
 B36                                      CONTINUOUS  HEAD                           ALL TIMES    "2 2353  2 2354"                           head.obs.csv                                                                    
 B37                                      CONTINUOUS  HEAD                           ALL TIMES    "2 2355  2 2356"                           head.obs.csv                                                                    
 B8-1                                     CONTINUOUS  HEAD                           ALL TIMES    "2 2013  2 2014"                           head.obs.csv                                                                    
 KB4-4                                    CONTINUOUS  HEAD                           ALL TIMES    "2 1279  2 1280"                           head.obs.csv                                                                    
 NI1301-2                                 CONTINUOUS  HEAD                           ALL TIMES    "2 1475  2 1476"                           head.obs.csv                                                                    
 NI1302-2                                 CONTINUOUS  HEAD                           ALL TIMES    "2 1474  2 1475"                           head.obs.csv                                                                    
 NI1401-1                                 CONTINUOUS  HEAD                           ALL TIMES    "2 1568  2 1569"                           head.obs.csv                                                                    
 NI1402-1                                 CONTINUOUS  HEAD                           ALL TIMES    "2 1387  2 1388"                           head.obs.csv                                                                    
 NI1404-1                                 CONTINUOUS  HEAD                           ALL TIMES    "2 1475  2 1476"                           head.obs.csv                                                                    
 NI1407-2                                 CONTINUOUS  HEAD                           ALL TIMES    "2 1471  2 1472"                           head.obs.csv                                                                    
 NI1408-2                                 CONTINUOUS  HEAD                           ALL TIMES    "2 1384  2 1385"                           head.obs.csv                                                                    
 NI1409-2                                 CONTINUOUS  HEAD                           ALL TIMES    "2 1678  2 1679"                           head.obs.csv                                                                    
 NI1410-2                                 CONTINUOUS  HEAD                           ALL TIMES    "2 1680  2 1681"                           head.obs.csv                                                                    
 NI1411-2                                 CONTINUOUS  HEAD                           ALL TIMES    "2 1569  2 1570"                           head.obs.csv                                                                    
 NI1413-2                                 CONTINUOUS  HEAD                           ALL TIMES    "2 2450  2 2451"                           head.obs.csv                                                                    
 NI1501-2                                 CONTINUOUS  HEAD                           ALL TIMES    "2 1297  2 1298"                           head.obs.csv                                                                    
 NI1505-2                                 CONTINUOUS  HEAD                           ALL TIMES    "2 1308  2 1309"                           head.obs.csv                                                                    
 NI1506-2                                 CONTINUOUS  HEAD                           ALL TIMES    "2 1387  2 1388"                           head.obs.csv                                                                    
 NI1507-2                                 CONTINUOUS  HEAD                           ALL TIMES    "2 1226  2 1227"                           head.obs.csv                                                                    
 NI1601-2                                 CONTINUOUS  HEAD                           ALL TIMES    "2 2255  2 2256"                           head.obs.csv                                                                    
 NI1604-1                                 CONTINUOUS  HEAD                           ALL TIMES    "2 2354  2 2355"                           head.obs.csv                                                                    
 NI1606-2                                 CONTINUOUS  HEAD                           ALL TIMES    "2 1887  2 1888"                           head.obs.csv                                                                    
 NI1607-2                                 CONTINUOUS  HEAD                           ALL TIMES    "2 2437  2 2438"                           head.obs.csv                                                                    
 NI1608-2                                 CONTINUOUS  HEAD                           ALL TIMES    "2 2516  2 2517"                           head.obs.csv                                                                    
 NI1703-2                                 CONTINUOUS  HEAD                           ALL TIMES    "2 2439  2 2440"                           head.obs.csv                                                                    
 NI1706-1                                 CONTINUOUS  HEAD                           ALL TIMES    "2 1439  2 1440"                           head.obs.csv                                                                    
 NI1709-1                                 CONTINUOUS  HEAD                           ALL TIMES    "2 2266  2 2267"                           head.obs.csv                                                                    
 NI1801-3                                 CONTINUOUS  HEAD                           ALL TIMES    "2 1113  2 1114"                           head.obs.csv                                                                    
 NI1803-3                                 CONTINUOUS  HEAD                           ALL TIMES    "2 1197  2 1198"                           head.obs.csv                                                                    
 NI1804-3                                 CONTINUOUS  HEAD                           ALL TIMES    "2 1277  2 1278"                           head.obs.csv                                                                    
 B9-5                                     CONTINUOUS  HEAD                           ALL TIMES    "3 351  3 352"                             head.obs.csv                                                                    
 B10-5                                    CONTINUOUS  HEAD                           ALL TIMES    "3 1254  3 1255"                           head.obs.csv                                                                    
 B16-2                                    CONTINUOUS  HEAD                           ALL TIMES    "3 1981  3 1982"                           head.obs.csv                                                                    
 B19-4                                    CONTINUOUS  HEAD                           ALL TIMES    "3 2357  3 2358"                           head.obs.csv                                                                    
 B21-3                                    CONTINUOUS  HEAD                           ALL TIMES    "3 1474  3 1475"                           head.obs.csv                                                                    
 B22-4                                    CONTINUOUS  HEAD                           ALL TIMES    "3 1473  3 1474"                           head.obs.csv                                                                    
 B2-3                                     CONTINUOUS  HEAD                           ALL TIMES    "3 1752  3 1753"                           head.obs.csv                                                                    
 B30                                      CONTINUOUS  HEAD                           ALL TIMES    "3 1296  3 1297"                           head.obs.csv                                                                    
 B34                                      CONTINUOUS  HEAD                           ALL TIMES    "3 2259  3 2260"                           head.obs.csv                                                                    
 B4                                       CONTINUOUS  HEAD                           ALL TIMES    "3 994  3 995"                             head.obs.csv                                                                    
 B8-2                                     CONTINUOUS  HEAD                           ALL TIMES    "3 2013  3 2014"                           head.obs.csv                                                                    
 NI1301-3                                 CONTINUOUS  HEAD                           ALL TIMES    "3 1475  3 1476"                           head.obs.csv                                                                    
 NI1302-3                                 CONTINUOUS  HEAD                           ALL TIMES    "3 1474  3 1475"                           head.obs.csv                                                                    
 NI1401-2                                 CONTINUOUS  HEAD                           ALL TIMES    "3 1568  3 1569"                           head.obs.csv                                                                    
 NI1402-2                                 CONTINUOUS  HEAD                           ALL TIMES    "3 1387  3 1388"                           head.obs.csv                                                                    
 NI1403-2                                 CONTINUOUS  HEAD                           ALL TIMES    "3 2356  3 2357"                           head.obs.csv                                                                    
 NI1404-2                                 CONTINUOUS  HEAD                           ALL TIMES    "3 1475  3 1476"                           head.obs.csv                                                                    
 NI1405-2                                 CONTINUOUS  HEAD                           ALL TIMES    "3 2196  3 2197"                           head.obs.csv                                                                    
 NI1406-1                                 CONTINUOUS  HEAD                           ALL TIMES    "3 1474  3 1475"                           head.obs.csv                                                                    
 NI1407-3                                 CONTINUOUS  HEAD                           ALL TIMES    "3 1471  3 1472"                           head.obs.csv                                                                    
 NI1408-3                                 CONTINUOUS  HEAD                           ALL TIMES    "3 1384  3 1385"                           head.obs.csv                                                                    
 NI1409-3                                 CONTINUOUS  HEAD                           ALL TIMES    "3 1678  3 1679"                           head.obs.csv                                                                    
 NI1410-3                                 CONTINUOUS  HEAD                           ALL TIMES    "3 1680  3 1681"                           head.obs.csv                                                                    
 NI1411-3                                 CONTINUOUS  HEAD                           ALL TIMES    "3 1569  3 1570"                           head.obs.csv                                                                    
 NI1412-3                                 CONTINUOUS  HEAD                           ALL TIMES    "3 2355  3 2356"                           head.obs.csv                                                                    
 NI1413-3                                 CONTINUOUS  HEAD                           ALL TIMES    "3 2450  3 2451"                           head.obs.csv                                                                    
 NI1501-3                                 CONTINUOUS  HEAD                           ALL TIMES    "3 1297  3 1298"                           head.obs.csv                                                                    
 NI1502-3                                 CONTINUOUS  HEAD                           ALL TIMES    "3 1147  3 1148"                           head.obs.csv                                                                    
 NI1503-3                                 CONTINUOUS  HEAD                           ALL TIMES    "3 1231  3 1232"                           head.obs.csv                                                                    
 NI1504-3                                 CONTINUOUS  HEAD                           ALL TIMES    "3 1310  3 1311"                           head.obs.csv                                                                    
 NI1505-3                                 CONTINUOUS  HEAD                           ALL TIMES    "3 1308  3 1309"                           head.obs.csv                                                                    
 NI1506-3                                 CONTINUOUS  HEAD                           ALL TIMES    "3 1387  3 1388"                           head.obs.csv                                                                    
 NI1507-3                                 CONTINUOUS  HEAD                           ALL TIMES    "3 1226  3 1227"                           head.obs.csv                                                                    
 NI1601-3                                 CONTINUOUS  HEAD                           ALL TIMES    "3 2255  3 2256"                           head.obs.csv                                                                    
 NI1602-2                                 CONTINUOUS  HEAD                           ALL TIMES    "3 2108  3 2109"                           head.obs.csv                                                                    
 NI1603-2                                 CONTINUOUS  HEAD                           ALL TIMES    "3 2040  3 2041"                           head.obs.csv                                                                    
 NI1604-3                                 CONTINUOUS  HEAD                           ALL TIMES    "3 2354  3 2355"                           head.obs.csv                                                                    
 NI1605-3                                 CONTINUOUS  HEAD                           ALL TIMES    "3 2357  3 2358"                           head.obs.csv                                                                    
 NI1606-3                                 CONTINUOUS  HEAD                           ALL TIMES    "3 1887  3 1888"                           head.obs.csv                                                                    
 NI1607-3                                 CONTINUOUS  HEAD                           ALL TIMES    "3 2437  3 2438"                           head.obs.csv                                                                    
 NI1608-3                                 CONTINUOUS  HEAD                           ALL TIMES    "3 2516  3 2517"                           head.obs.csv                                                                    
 NI1609-3                                 CONTINUOUS  HEAD                           ALL TIMES    "3 2520  3 2521"                           head.obs.csv                                                                    
 NI1612-2                                 CONTINUOUS  HEAD                           ALL TIMES    "3 2340  3 2341"                           head.obs.csv                                                                    
 NI1701-1                                 CONTINUOUS  HEAD                           ALL TIMES    "3 2252  3 2253"                           head.obs.csv                                                                    
 NI1702-1                                 CONTINUOUS  HEAD                           ALL TIMES    "3 2184  3 2185"                           head.obs.csv                                                                    
 NI1704-2                                 CONTINUOUS  HEAD                           ALL TIMES    "3 1033  3 1034"                           head.obs.csv                                                                    
 NI1705-2                                 CONTINUOUS  HEAD                           ALL TIMES    "3 1198  3 1199"                           head.obs.csv                                                                    
 NI1706-2                                 CONTINUOUS  HEAD                           ALL TIMES    "3 1439  3 1440"                           head.obs.csv                                                                    
 NI1707-1                                 CONTINUOUS  HEAD                           ALL TIMES    "3 1356  3 1357"                           head.obs.csv                                                                    
 NI1708-1                                 CONTINUOUS  HEAD                           ALL TIMES    "3 2448  3 2449"                           head.obs.csv                                                                    
 NI1711-1                                 CONTINUOUS  HEAD                           ALL TIMES    "3 2530  3 2531"                           head.obs.csv                                                                    
 ----------------------------------------------------------------------------------------------------------------------------------------------------------------------------------------------------------------------------


    BINARY GRID INFORMATION WILL BE WRITTEN TO:
      UNIT NUMBER: 1018
      FILE NAME: C:\Users\nat12nho\Documents\Development\repos\hagfors_gwm\experimental\experimental.disv.grb

 OPENED C:\Users\nat12nho\Documents\Development\repos\hagfors_gwm\experimental\experimental.disv.grb
 FILE TYPE:DATA(BINARY)   UNIT 1018   STATUS:REPLACE             
 FORMAT:UNFORMATTED            ACCESS:STREAM              
 ACTION:READWRITE           

      THE LAST TIME STEP WILL BE PRINTED
      THE LAST TIME STEP WILL BE PRINTED
 # File generated by Flopy version 3.3.5 on 11/03/2021 at 13:12:39.

 PROCESSING OC OPTIONS

    BUDGET INFORMATION WILL BE WRITTEN TO:
      UNIT NUMBER: 1019
      FILE NAME: experimental.cbb

 OPENED experimental.cbb
 FILE TYPE:DATA(BINARY)   UNIT 1019   STATUS:REPLACE             
 FORMAT:UNFORMATTED            ACCESS:STREAM              
 ACTION:READWRITE           

    HEAD INFORMATION WILL BE WRITTEN TO:
      UNIT NUMBER: 1020
      FILE NAME: experimental.hds

 OPENED experimental.hds
 FILE TYPE:DATA(BINARY)   UNIT 1020   STATUS:REPLACE             
 FORMAT:UNFORMATTED            ACCESS:STREAM              
 ACTION:READWRITE           

 END OF OC OPTIONS

The observation utility is active for "SFR"
 # File generated by Flopy version 3.3.5 on 11/03/2021 at 13:12:39.

Processing observation options:

Text output number of digits of precision set to: 10
The PRINT_INPUT option has been specified.


 OBSERVATIONS READ FROM FILE "experimental.sfr.obs"
 ----------------------------------------------------------------------------------------------------------------------------------------------------------------------------------------------------------------------------
 NAME                                     TYPE                                       TIME         LOCATION DATA                              OUTPUT FILENAME                                                                 
 ----------------------------------------------------------------------------------------------------------------------------------------------------------------------------------------------------------------------------
 NI15-O44-STG                             CONTINUOUS  STAGE                          ALL TIMES    "107"                                      sfr.obs.csv                                                                     
 NI15-O46-STG                             CONTINUOUS  STAGE                          ALL TIMES    "141"                                      sfr.obs.csv                                                                     
 NI15-O47-STG                             CONTINUOUS  STAGE                          ALL TIMES    "156"                                      sfr.obs.csv                                                                     
 NI15-O48-STG                             CONTINUOUS  STAGE                          ALL TIMES    "195"                                      sfr.obs.csv                                                                     
 GAGE-1                                   CONTINUOUS  INFLOW                         ALL TIMES    "234"                                      sfr.obs.csv                                                                     
 ----------------------------------------------------------------------------------------------------------------------------------------------------------------------------------------------------------------------------



start timestep kper="1" kstp="1" mode="normal"


 BEGIN READING OUTPUT CONTROL FOR STRESS PERIOD 1
      ALL TIME STEPS WILL BE SAVED
      ALL TIME STEPS WILL BE SAVED
      THE FIRST TIME STEP WILL BE PRINTED
      THE LAST TIME STEP WILL BE PRINTED
      THE LAST TIME STEP WILL BE PRINTED

 END READING OUTPUT CONTROL FOR STRESS PERIOD 1


 PROCESSING STORAGE PERIOD DATA
 END PROCESSING STORAGE PERIOD DATA


 STRESS PERIOD 1 IS STEADY-STATE

 -----------------------------------------------------------------------------------------------------
  GHB NO.    LAYER  CELL2D       STAGE         CONDUCTANCE    BOUNDNAME                               
 -----------------------------------------------------------------------------------------------------
     1         1      830    142.500000       86.4000000      RED                                     
     2         1      913    142.500000       86.4000000      RED                                     
     3         1      996    142.500000       86.4000000      RED                                     
     4         1     1076    142.500000       86.4000000      RED                                     
     5         1     1156    142.500000       86.4000000      RED                                     
     6         1     1239    142.500000       86.4000000      RED                                     
     7         1     1319    142.500000       86.4000000      RED                                     
     8         1     1398    142.500000       86.4000000      RED                                     
     9         1     1485    142.500000       86.4000000      RED                                     
     10        1     1580    142.500000       86.4000000      RED                                     
     11        1     1692    142.500000       86.4000000      RED                                     
     12        1     1776    142.500000       86.4000000      RED                                     
     13        1     1853    142.500000       86.4000000      RED                                     
     14        1     1929    142.500000       86.4000000      RED                                     
     15        1     2004    142.500000       86.4000000      RED                                     
     16        1     2075    142.500000       86.4000000      RED                                     
     17        1     2145    142.500000       86.4000000      RED                                     
     18        1     2214    142.500000       86.4000000      RED                                     
     19        1     2309    142.500000       86.4000000      RED                                     
     20        1     2403    142.500000       86.4000000      RED                                     
     21        1     2487    142.500000       86.4000000      RED                                     
     22        1     2564    142.500000       86.4000000      RED                                     
     23        1     2565    142.500000       86.4000000      RED                                     
     24        1     2635    142.500000       86.4000000      RED                                     
     25        1     2704    142.500000       86.4000000      RED                                     
     26        1     2784    142.500000       86.4000000      RED                                     
     27        1      428    143.000000       86.4000000      ORANGERED                               
     28        1      504    143.000000       86.4000000      ORANGERED                               
     29        1      584    143.000000       86.4000000      ORANGERED                               
     30        1      665    143.000000       86.4000000      ORANGERED                               
     31        1      747    143.000000       86.4000000      ORANGERED                               
     32        1      312    137.500000       86.4000000      ORANGE                                  
     33        1      313    137.500000       86.4000000      ORANGE                                  
     34        1      314    137.500000       86.4000000      ORANGE                                  
     35        1      315    137.500000       86.4000000      ORANGE                                  
     36        1      316    137.500000       86.4000000      ORANGE                                  
     37        1      317    137.500000       86.4000000      ORANGE                                  
     38        1      318    137.500000       86.4000000      ORANGE                                  
     39        1      319    137.500000       86.4000000      ORANGE                                  
     40        1      320    137.500000       86.4000000      ORANGE                                  
     41        1      321    137.500000       86.4000000      ORANGE                                  
     42        1      322    137.500000       86.4000000      ORANGE                                  
     43        1      323    137.500000       86.4000000      ORANGE                                  
     44        1      324    137.500000       86.4000000      ORANGE                                  
     45        1      325    137.500000       86.4000000      ORANGE                                  
     46        1      326    137.500000       86.4000000      ORANGE                                  
     47        1      327    137.500000       86.4000000      ORANGE                                  
     48        1      328    137.500000       86.4000000      ORANGE                                  
     49        1      329    137.500000       86.4000000      ORANGE                                  
     50        1      330    137.500000       86.4000000      ORANGE                                  
     51        1      331    137.500000       86.4000000      ORANGE                                  
     52        1      332    137.500000       86.4000000      ORANGE                                  
     53        1      333    137.500000       86.4000000      ORANGE                                  
     54        1      334    137.500000       86.4000000      ORANGE                                  
     55        1      335    137.693893       86.4000000      ORANGE                                  
     56        1      336    137.912094       86.4000000      ORANGE                                  
     57        1      337    137.988297       86.4000000      ORANGE                                  
     58        1      338    137.979095       86.4000000      ORANGE                                  
     59        1      339    137.994705       86.4000000      ORANGE                                  
     60        1      340    138.170303       86.4000000      ORANGE                                  
     61        1      341    138.331497       86.4000000      ORANGE                                  
     62        1      342    138.308304       86.4000000      ORANGE                                  
     63        1      343    138.457901       86.4000000      ORANGE                                  
     64        1      344    138.635498       86.4000000      ORANGE                                  
     65        1      345    138.630798       86.4000000      ORANGE                                  
     66        1      346    138.478806       86.4000000      ORANGE                                  
     67        1      347    138.828003       86.4000000      ORANGE                                  
     68        1      51     135.500000       86.4000000      GOLD                                    
     69        1      84     135.500000       86.4000000      GOLD                                    
     70        1      116    135.500000       86.4000000      GOLD                                    
     71        1      150    135.500000       86.4000000      GOLD                                    
     72        1      186    135.500000       86.4000000      GOLD                                    
     73        1      224    135.500000       86.4000000      GOLD                                    
     74        1      264    135.500000       86.4000000      GOLD                                    
     75        1       1     134.500000       86.4000000      YELLOWGREEN                             
     76        1       2     134.500000       86.4000000      YELLOWGREEN                             
     77        1       3     134.500000       86.4000000      YELLOWGREEN                             
     78        1       4     134.500000       86.4000000      YELLOWGREEN                             
     79        1       5     134.500000       86.4000000      YELLOWGREEN                             
     80        1       6     134.500000       86.4000000      YELLOWGREEN                             
     81        1       9     134.500000       86.4000000      YELLOWGREEN                             
     82        1      10     134.500000       86.4000000      YELLOWGREEN                             
     83        1      11     134.500000       86.4000000      YELLOWGREEN                             
     84        1      12     134.500000       86.4000000      YELLOWGREEN                             
     85        1      13     134.500000       86.4000000      YELLOWGREEN                             
     86        1      14     134.500000       86.4000000      YELLOWGREEN                             
     87        1      15     134.500000       86.4000000      YELLOWGREEN                             
     88        1      16     134.500000       86.4000000      YELLOWGREEN                             
     89        1      17     134.500000       86.4000000      YELLOWGREEN                             
     90        1      18     134.500000       86.4000000      YELLOWGREEN                             
     91        1      19     134.500000       86.4000000      YELLOWGREEN                             
     92        1      20     134.500000       86.4000000      YELLOWGREEN                             
     93        1      21     134.500000       86.4000000      YELLOWGREEN                             
     94        1      22     134.500000       86.4000000      YELLOWGREEN                             
     95        1      23     134.500000       86.4000000      YELLOWGREEN                             
     96        1      52     133.600000       86.4000000      LIMEGREEN                               
     97        1      85     133.600000       86.4000000      LIMEGREEN                               
     98        1      117    133.600000       86.4000000      LIMEGREEN                               
     99        1      151    133.600000       86.4000000      LIMEGREEN                               
    100        1      187    133.600000       86.4000000      LIMEGREEN                               
    101        1      265    133.200000       86.4000000      AQUA                                    
    102        1      348    133.200000       86.4000000      AQUA                                    
    103        1      429    133.200000       86.4000000      AQUA                                    
    104        1      505    133.200000       86.4000000      AQUA                                    
    105        1      585    133.200000       86.4000000      AQUA                                    
    106        1      666    133.200000       86.4000000      AQUA                                    
    107        1      748    133.200000       86.4000000      AQUA                                    
    108        1      831    133.200000       86.4000000      AQUA                                    
    109        1      914    133.200000       86.4000000      AQUA                                    
    110        1      997    133.200000       86.4000000      AQUA                                    
    111        1     1077    133.200000       86.4000000      AQUA                                    
    112        1     1157    133.200000       86.4000000      AQUA                                    
    113        1     1240    133.200000       86.4000000      AQUA                                    
    114        1     1399    133.200000       86.4000000      DARKTURQUOISE                           
    115        1     1486    133.200000       86.4000000      DARKTURQUOISE                           
    116        1     1581    133.200000       86.4000000      DARKTURQUOISE                           
    117        1     1693    133.200000       86.4000000      DARKTURQUOISE                           
    118        1     1777    133.200000       86.4000000      DARKTURQUOISE                           
    119        1     1854    133.200000       86.4000000      DARKTURQUOISE                           
    120        1     1930    133.200000       86.4000000      DARKTURQUOISE                           
    121        1     2005    133.200000       86.4000000      DARKTURQUOISE                           
    122        1     2076    133.200000       86.4000000      DARKTURQUOISE                           
    123        1     2146    133.200000       86.4000000      DARKTURQUOISE                           
    124        1     2215    133.200000       86.4000000      DARKTURQUOISE                           
    125        1     2310    133.200000       86.4000000      DARKTURQUOISE                           
    126        1     2404    133.200000       86.4000000      DARKTURQUOISE                           
    127        1     2488    133.200000       86.4000000      DARKTURQUOISE                           
    128        1     2566    133.200000       86.4000000      DARKTURQUOISE                           
    129        1     2636    133.200000       86.4000000      DARKTURQUOISE                           
    130        1     2705    133.200000       86.4000000      DARKTURQUOISE                           
    131        1     2785    133.200000       86.4000000      DARKTURQUOISE                           
    132        1     2856    133.200000       86.4000000      DARKTURQUOISE                           
    133        1     2921    133.200000       86.4000000      DARKTURQUOISE                           
    134        1     2971    133.200000       86.4000000      DARKTURQUOISE                           
    135        1     3018    133.200000       86.4000000      DARKTURQUOISE                           
    136        1     3061    133.462006       86.4000000      DARKTURQUOISE                           
    137        1     3097    134.633896       86.4000000      DARKTURQUOISE                           
    138        1     3126    136.711899       86.4000000      ROYALBLUE                               
    139        1     3127    137.495697       86.4000000      ROYALBLUE                               
    140        1     3128    138.313507       86.4000000      ROYALBLUE                               
    141        1     3129    139.249405       86.4000000      ROYALBLUE                               
    142        1     3130    139.835693       86.4000000      ROYALBLUE                               
    143        1     3131    140.728104       86.4000000      ROYALBLUE                               
    144        1     3132    141.188797       86.4000000      ROYALBLUE                               
    145        1     3133    141.609802       86.4000000      ROYALBLUE                               
    146        1     3134    141.910904       86.4000000      ROYALBLUE                               
    147        1     3135    142.142197       86.4000000      ROYALBLUE                               
    148        1     3112    141.270401       86.4000000      BLUE                                    
    149        1     3125    142.113602       86.4000000      BLUE                                    
    150        1     3078    140.132797       86.4000000      BLUEVIOLET                              
    151        1     3079    139.932907       86.4000000      BLUEVIOLET                              
    152        1     3080    139.604294       86.4000000      BLUEVIOLET                              
    153        1     3081    139.418594       86.4000000      BLUEVIOLET                              
    154        1     3082    139.438400       86.4000000      BLUEVIOLET                              
    155        1     3083    139.939697       86.4000000      BLUEVIOLET                              
    156        1     3084    139.788803       86.4000000      BLUEVIOLET                              
    157        1     3085    139.730103       86.4000000      BLUEVIOLET                              
    158        1     3086    139.743195       86.4000000      BLUEVIOLET                              
    159        1     3087    139.697495       86.4000000      BLUEVIOLET                              
    160        1     3088    139.811005       86.4000000      BLUEVIOLET                              
    161        1     3089    139.843201       86.4000000      BLUEVIOLET                              
    162        1     3090    139.720398       86.4000000      BLUEVIOLET                              
    163        1     3091    139.802704       86.4000000      BLUEVIOLET                              
    164        1     3092    139.727707       86.4000000      BLUEVIOLET                              
    165        1     3093    139.958694       86.4000000      BLUEVIOLET                              
    166        1     3094    140.352707       86.4000000      BLUEVIOLET                              
    167        1     3095    140.726395       86.4000000      BLUEVIOLET                              
    168        1     3096    140.822693       86.4000000      BLUEVIOLET                              
    169        1     3055    141.222198       86.4000000      PURPLE                                  
    170        1     3056    142.104996       86.4000000      PURPLE                                  
    171        1     3057    142.760498       86.4000000      PURPLE                                  
    172        1     3058    143.357895       86.4000000      PURPLE                                  
    173        1     3059    143.709702       86.4000000      PURPLE                                  
    174        1     3060    144.099106       86.4000000      PURPLE                                  
    175        1     3015    143.393707       86.4000000      MEDIUMVIOLETRED                         
    176        1     3016    143.648804       86.4000000      MEDIUMVIOLETRED                         
    177        1     3017    143.819107       86.4000000      MEDIUMVIOLETRED                         
    178        1     2855    140.385696       86.4000000      CRIMSON                                 
    179        1     2920    141.427597       86.4000000      CRIMSON                                 
    180        1     2970    142.584702       86.4000000      CRIMSON                                 
 -----------------------------------------------------------------------------------------------------


 -------------------------------------------
  RCH NO.    LAYER  CELL2D      RECHARGE    
 -------------------------------------------
     1         1       7     1.00000000     
     2         1       8     1.00000000     
     3         1      24     1.00000000     
     4         1      25     1.00000000     
     5         1      26     1.00000000     
     6         1      27     1.00000000     
     7         1      28     1.00000000     
     8         1      29     1.00000000     
     9         1      30     1.00000000     
     10        1      31     1.00000000     
     11        1      32     1.00000000     
     12        1      33     1.00000000     
     13        1      34     1.00000000     
     14        1      35     1.00000000     
     15        1      36     1.00000000     
     16        1      37     1.00000000     
     17        1      38     1.00000000     
     18        1      39     1.00000000     
     19        1      40     1.00000000     
     20        1      41     1.00000000     
     21        1      42     1.00000000     
     22        1      43     1.00000000     
     23        1      44     1.00000000     
     24        1      45     1.00000000     
     25        1      46     1.00000000     
     26        1      47     1.00000000     
     27        1      48     1.00000000     
     28        1      49     1.00000000     
     29        1      50     1.00000000     
     30        1      53     1.00000000     
     31        1      54     1.00000000     
     32        1      55     1.00000000     
     33        1      56     1.00000000     
     34        1      57     1.00000000     
     35        1      58     1.00000000     
     36        1      59     1.00000000     
     37        1      60     1.00000000     
     38        1      61     1.00000000     
     39        1      62     1.00000000     
     40        1      63     1.00000000     
     41        1      64     1.00000000     
     42        1      65     1.00000000     
     43        1      66     1.00000000     
     44        1      67     1.00000000     
     45        1      68     1.00000000     
     46        1      69     1.00000000     
     47        1      70     1.00000000     
     48        1      71     1.00000000     
     49        1      72     1.00000000     
     50        1      73     1.00000000     
     51        1      74     1.00000000     
     52        1      75     1.00000000     
     53        1      76     1.00000000     
     54        1      77     1.00000000     
     55        1      78     1.00000000     
     56        1      79     1.00000000     
     57        1      80     1.00000000     
     58        1      81     1.00000000     
     59        1      82     1.00000000     
     60        1      83     1.00000000     
     61        1      86     1.00000000     
     62        1      87     1.00000000     
     63        1      88     1.00000000     
     64        1      89     1.00000000     
     65        1      90     1.00000000     
     66        1      91     1.00000000     
     67        1      92     1.00000000     
     68        1      93     1.00000000     
     69        1      94     1.00000000     
     70        1      95     1.00000000     
     71        1      96     1.00000000     
     72        1      97     1.00000000     
     73        1      98     1.00000000     
     74        1      99     1.00000000     
     75        1      100    1.00000000     
     76        1      101    1.00000000     
     77        1      102    1.00000000     
     78        1      103    1.00000000     
     79        1      104    1.00000000     
     80        1      105    1.00000000     
     81        1      106    1.00000000     
     82        1      107    1.00000000     
     83        1      108    1.00000000     
     84        1      109    1.00000000     
     85        1      110    1.00000000     
     86        1      111    1.00000000     
     87        1      112    1.00000000     
     88        1      113    1.00000000     
     89        1      114    1.00000000     
     90        1      115    1.00000000     
     91        1      118    1.00000000     
     92        1      119    1.00000000     
     93        1      120    1.00000000     
     94        1      121    1.00000000     
     95        1      122    1.00000000     
     96        1      123    1.00000000     
     97        1      124    1.00000000     
     98        1      125    1.00000000     
     99        1      126    1.00000000     
    100        1      127    1.00000000     
    101        1      128    1.00000000     
    102        1      129    1.00000000     
    103        1      130    1.00000000     
    104        1      131    1.00000000     
    105        1      132    1.00000000     
    106        1      133    1.00000000     
    107        1      134    1.00000000     
    108        1      135    1.00000000     
    109        1      136    1.00000000     
    110        1      137    1.00000000     
    111        1      138    1.00000000     
    112        1      139    1.00000000     
    113        1      140    1.00000000     
    114        1      141    1.00000000     
    115        1      142    1.00000000     
    116        1      143    1.00000000     
    117        1      144    1.00000000     
    118        1      145    1.00000000     
    119        1      146    1.00000000     
    120        1      147    1.00000000     
    121        1      148    1.00000000     
    122        1      149    1.00000000     
    123        1      152    1.00000000     
    124        1      153    1.00000000     
    125        1      154    1.00000000     
    126        1      155    1.00000000     
    127        1      156    1.00000000     
    128        1      157    1.00000000     
    129        1      158    1.00000000     
    130        1      159    1.00000000     
    131        1      160    1.00000000     
    132        1      161    1.00000000     
    133        1      162    1.00000000     
    134        1      163    1.00000000     
    135        1      164    1.00000000     
    136        1      165    1.00000000     
    137        1      166    1.00000000     
    138        1      167    1.00000000     
    139        1      168    1.00000000     
    140        1      169    1.00000000     
    141        1      170    1.00000000     
    142        1      171    1.00000000     
    143        1      172    1.00000000     
    144        1      173    1.00000000     
    145        1      174    1.00000000     
    146        1      175    1.00000000     
    147        1      176    1.00000000     
    148        1      177    1.00000000     
    149        1      178    1.00000000     
    150        1      179    1.00000000     
    151        1      180    1.00000000     
    152        1      181    1.00000000     
    153        1      182    1.00000000     
    154        1      183    1.00000000     
    155        1      184    1.00000000     
    156        1      185    1.00000000     
    157        1      188    1.00000000     
    158        1      189    1.00000000     
    159        1      190    1.00000000     
    160        1      191    1.00000000     
    161        1      192    1.00000000     
    162        1      193    1.00000000     
    163        1      194    1.00000000     
    164        1      195    1.00000000     
    165        1      196    1.00000000     
    166        1      197    1.00000000     
    167        1      198    1.00000000     
    168        1      199    1.00000000     
    169        1      200    1.00000000     
    170        1      201    1.00000000     
    171        1      202    1.00000000     
    172        1      203    1.00000000     
    173        1      204    1.00000000     
    174        1      205    1.00000000     
    175        1      206    1.00000000     
    176        1      207    1.00000000     
    177        1      208    1.00000000     
    178        1      209    1.00000000     
    179        1      210    1.00000000     
    180        1      211    1.00000000     
    181        1      212    1.00000000     
    182        1      213    1.00000000     
    183        1      214    1.00000000     
    184        1      215    1.00000000     
    185        1      216    1.00000000     
    186        1      217    1.00000000     
    187        1      218    1.00000000     
    188        1      219    1.00000000     
    189        1      220    1.00000000     
    190        1      221    1.00000000     
    191        1      222    1.00000000     
    192        1      223    1.00000000     
    193        1      225    1.00000000     
    194        1      226    1.00000000     
    195        1      227    1.00000000     
    196        1      228    1.00000000     
    197        1      229    1.00000000     
    198        1      230    1.00000000     
    199        1      231    1.00000000     
    200        1      232    1.00000000     
    201        1      233    1.00000000     
    202        1      234    1.00000000     
    203        1      235    1.00000000     
    204        1      236    1.00000000     
    205        1      237    1.00000000     
    206        1      238    1.00000000     
    207        1      239    1.00000000     
    208        1      240    1.00000000     
    209        1      241    1.00000000     
    210        1      242    1.00000000     
    211        1      243    1.00000000     
    212        1      244    1.00000000     
    213        1      245    1.00000000     
    214        1      246    1.00000000     
    215        1      247    1.00000000     
    216        1      248    1.00000000     
    217        1      249    1.00000000     
    218        1      250    1.00000000     
    219        1      251    1.00000000     
    220        1      252    1.00000000     
    221        1      253    1.00000000     
    222        1      254    1.00000000     
    223        1      255    1.00000000     
    224        1      256    1.00000000     
    225        1      257    1.00000000     
    226        1      258    1.00000000     
    227        1      259    1.00000000     
    228        1      260    1.00000000     
    229        1      261    1.00000000     
    230        1      262    1.00000000     
    231        1      263    1.00000000     
    232        1      266    1.00000000     
    233        1      267    1.00000000     
    234        1      268    1.00000000     
    235        1      269    1.00000000     
    236        1      270    1.00000000     
    237        1      271    1.00000000     
    238        1      272    1.00000000     
    239        1      273    1.00000000     
    240        1      274    1.00000000     
    241        1      275    1.00000000     
    242        1      276    1.00000000     
    243        1      277    1.00000000     
    244        1      278    1.00000000     
    245        1      279    1.00000000     
    246        1      280    1.00000000     
    247        1      281    1.00000000     
    248        1      282    1.00000000     
    249        1      283    1.00000000     
    250        1      284    1.00000000     
    251        1      285    1.00000000     
    252        1      286    1.00000000     
    253        1      287    1.00000000     
    254        1      288    1.00000000     
    255        1      289    1.00000000     
    256        1      290    1.00000000     
    257        1      291    1.00000000     
    258        1      292    1.00000000     
    259        1      293    1.00000000     
    260        1      294    1.00000000     
    261        1      295    1.00000000     
    262        1      296    1.00000000     
    263        1      297    1.00000000     
    264        1      298    1.00000000     
    265        1      299    1.00000000     
    266        1      300    1.00000000     
    267        1      301    1.00000000     
    268        1      302    1.00000000     
    269        1      303    1.00000000     
    270        1      304    1.00000000     
    271        1      305    1.00000000     
    272        1      306    1.00000000     
    273        1      307    1.00000000     
    274        1      308    1.00000000     
    275        1      309    1.00000000     
    276        1      310    1.00000000     
    277        1      311    1.00000000     
    278        1      349    1.00000000     
    279        1      350    1.00000000     
    280        1      351    1.00000000     
    281        1      352    1.00000000     
    282        1      353    1.00000000     
    283        1      354    1.00000000     
    284        1      355    1.00000000     
    285        1      356    1.00000000     
    286        1      357    1.00000000     
    287        1      358    1.00000000     
    288        1      359    1.00000000     
    289        1      360    1.00000000     
    290        1      361    1.00000000     
    291        1      362    1.00000000     
    292        1      363    1.00000000     
    293        1      364    1.00000000     
    294        1      365    1.00000000     
    295        1      366    1.00000000     
    296        1      367    1.00000000     
    297        1      368    1.00000000     
    298        1      369    1.00000000     
    299        1      370    1.00000000     
    300        1      371    1.00000000     
    301        1      372    1.00000000     
    302        1      373    1.00000000     
    303        1      374    1.00000000     
    304        1      375    1.00000000     
    305        1      376    1.00000000     
    306        1      377    1.00000000     
    307        1      378    1.00000000     
    308        1      379    1.00000000     
    309        1      380    1.00000000     
    310        1      381    1.00000000     
    311        1      382    1.00000000     
    312        1      383    1.00000000     
    313        1      384    1.00000000     
    314        1      385    1.00000000     
    315        1      386    1.00000000     
    316        1      387    1.00000000     
    317        1      388    1.00000000     
    318        1      389    1.00000000     
    319        1      390    1.00000000     
    320        1      391    1.00000000     
    321        1      392    1.00000000     
    322        1      393    1.00000000     
    323        1      394    1.00000000     
    324        1      395    1.00000000     
    325        1      396    1.00000000     
    326        1      397    1.00000000     
    327        1      398    1.00000000     
    328        1      399    1.00000000     
    329        1      400    1.00000000     
    330        1      401    1.00000000     
    331        1      402    1.00000000     
    332        1      403    1.00000000     
    333        1      404    1.00000000     
    334        1      405    1.00000000     
    335        1      406    1.00000000     
    336        1      407    1.00000000     
    337        1      408    1.00000000     
    338        1      409    1.00000000     
    339        1      410    1.00000000     
    340        1      411    1.00000000     
    341        1      412    1.00000000     
    342        1      413    1.00000000     
    343        1      414    1.00000000     
    344        1      415    1.00000000     
    345        1      416    1.00000000     
    346        1      417    1.00000000     
    347        1      418    1.00000000     
    348        1      419    1.00000000     
    349        1      420    1.00000000     
    350        1      421    1.00000000     
    351        1      422    1.00000000     
    352        1      423    1.00000000     
    353        1      424    1.00000000     
    354        1      425    1.00000000     
    355        1      426    1.00000000     
    356        1      427    1.00000000     
    357        1      430    1.00000000     
    358        1      431    1.00000000     
    359        1      432    1.00000000     
    360        1      433    1.00000000     
    361        1      434    1.00000000     
    362        1      435    1.00000000     
    363        1      436    1.00000000     
    364        1      437    1.00000000     
    365        1      438    1.00000000     
    366        1      439    1.00000000     
    367        1      440    1.00000000     
    368        1      441    1.00000000     
    369        1      442    1.00000000     
    370        1      443    1.00000000     
    371        1      444    1.00000000     
    372        1      445    1.00000000     
    373        1      446    1.00000000     
    374        1      447    1.00000000     
    375        1      448    1.00000000     
    376        1      449    1.00000000     
    377        1      450    1.00000000     
    378        1      451    1.00000000     
    379        1      452    1.00000000     
    380        1      453    1.00000000     
    381        1      454    1.00000000     
    382        1      455    1.00000000     
    383        1      456    1.00000000     
    384        1      457    1.00000000     
    385        1      458    1.00000000     
    386        1      459    1.00000000     
    387        1      460    1.00000000     
    388        1      461    1.00000000     
    389        1      462    1.00000000     
    390        1      463    1.00000000     
    391        1      464    1.00000000     
    392        1      465    1.00000000     
    393        1      466    1.00000000     
    394        1      467    1.00000000     
    395        1      468    1.00000000     
    396        1      469    1.00000000     
    397        1      470    1.00000000     
    398        1      471    1.00000000     
    399        1      472    1.00000000     
    400        1      473    1.00000000     
    401        1      474    1.00000000     
    402        1      475    1.00000000     
    403        1      476    1.00000000     
    404        1      477    1.00000000     
    405        1      478    1.00000000     
    406        1      479    1.00000000     
    407        1      480    1.00000000     
    408        1      481    1.00000000     
    409        1      482    1.00000000     
    410        1      483    1.00000000     
    411        1      484    1.00000000     
    412        1      485    1.00000000     
    413        1      486    1.00000000     
    414        1      487    1.00000000     
    415        1      488    1.00000000     
    416        1      489    1.00000000     
    417        1      490    1.00000000     
    418        1      491    1.00000000     
    419        1      492    1.00000000     
    420        1      493    1.00000000     
    421        1      494    1.00000000     
    422        1      495    1.00000000     
    423        1      496    1.00000000     
    424        1      497    1.00000000     
    425        1      498    1.00000000     
    426        1      499    1.00000000     
    427        1      500    1.00000000     
    428        1      501    1.00000000     
    429        1      502    1.00000000     
    430        1      503    1.00000000     
    431        1      506    1.00000000     
    432        1      507    1.00000000     
    433        1      508    1.00000000     
    434        1      509    1.00000000     
    435        1      510    1.00000000     
    436        1      511    1.00000000     
    437        1      512    1.00000000     
    438        1      513    1.00000000     
    439        1      514    1.00000000     
    440        1      515    1.00000000     
    441        1      516    1.00000000     
    442        1      517    1.00000000     
    443        1      518    1.00000000     
    444        1      519    1.00000000     
    445        1      520    1.00000000     
    446        1      521    1.00000000     
    447        1      522    1.00000000     
    448        1      523    1.00000000     
    449        1      524    1.00000000     
    450        1      525    1.00000000     
    451        1      526    1.00000000     
    452        1      527    1.00000000     
    453        1      528    1.00000000     
    454        1      529    1.00000000     
    455        1      530    1.00000000     
    456        1      531    1.00000000     
    457        1      532    1.00000000     
    458        1      533    1.00000000     
    459        1      534    1.00000000     
    460        1      535    1.00000000     
    461        1      536    1.00000000     
    462        1      537    1.00000000     
    463        1      538    1.00000000     
    464        1      539    1.00000000     
    465        1      540    1.00000000     
    466        1      541    1.00000000     
    467        1      542    1.00000000     
    468        1      543    1.00000000     
    469        1      544    1.00000000     
    470        1      545    1.00000000     
    471        1      546    1.00000000     
    472        1      547    1.00000000     
    473        1      548    1.00000000     
    474        1      549    1.00000000     
    475        1      550    1.00000000     
    476        1      551    1.00000000     
    477        1      552    1.00000000     
    478        1      553    1.00000000     
    479        1      554    1.00000000     
    480        1      555    1.00000000     
    481        1      556    1.00000000     
    482        1      557    1.00000000     
    483        1      558    1.00000000     
    484        1      559    1.00000000     
    485        1      560    1.00000000     
    486        1      561    1.00000000     
    487        1      562    1.00000000     
    488        1      563    1.00000000     
    489        1      564    1.00000000     
    490        1      565    1.00000000     
    491        1      566    1.00000000     
    492        1      567    1.00000000     
    493        1      568    1.00000000     
    494        1      569    1.00000000     
    495        1      570    1.00000000     
    496        1      571    1.00000000     
    497        1      572    1.00000000     
    498        1      573    1.00000000     
    499        1      574    1.00000000     
    500        1      575    1.00000000     
    501        1      576    1.00000000     
    502        1      577    1.00000000     
    503        1      578    1.00000000     
    504        1      579    1.00000000     
    505        1      580    1.00000000     
    506        1      581    1.00000000     
    507        1      582    1.00000000     
    508        1      583    1.00000000     
    509        1      586    1.00000000     
    510        1      587    1.00000000     
    511        1      588    1.00000000     
    512        1      589    1.00000000     
    513        1      590    1.00000000     
    514        1      591    1.00000000     
    515        1      592    1.00000000     
    516        1      593    1.00000000     
    517        1      594    1.00000000     
    518        1      595    1.00000000     
    519        1      596    1.00000000     
    520        1      597    1.00000000     
    521        1      598    1.00000000     
    522        1      599    1.00000000     
    523        1      600    1.00000000     
    524        1      601    1.00000000     
    525        1      602    1.00000000     
    526        1      603    1.00000000     
    527        1      604    1.00000000     
    528        1      605    1.00000000     
    529        1      606    1.00000000     
    530        1      607    1.00000000     
    531        1      608    1.00000000     
    532        1      609    1.00000000     
    533        1      610    1.00000000     
    534        1      611    1.00000000     
    535        1      612    1.00000000     
    536        1      613    1.00000000     
    537        1      614    1.00000000     
    538        1      615    1.00000000     
    539        1      616    1.00000000     
    540        1      617    1.00000000     
    541        1      618    1.00000000     
    542        1      619    1.00000000     
    543        1      620    1.00000000     
    544        1      621    1.00000000     
    545        1      622    1.00000000     
    546        1      623    1.00000000     
    547        1      624    1.00000000     
    548        1      625    1.00000000     
    549        1      626    1.00000000     
    550        1      627    1.00000000     
    551        1      628    1.00000000     
    552        1      629    1.00000000     
    553        1      630    1.00000000     
    554        1      631    1.00000000     
    555        1      632    1.00000000     
    556        1      633    1.00000000     
    557        1      634    1.00000000     
    558        1      635    1.00000000     
    559        1      636    1.00000000     
    560        1      637    1.00000000     
    561        1      638    1.00000000     
    562        1      639    1.00000000     
    563        1      640    1.00000000     
    564        1      641    1.00000000     
    565        1      642    1.00000000     
    566        1      643    1.00000000     
    567        1      644    1.00000000     
    568        1      645    1.00000000     
    569        1      646    1.00000000     
    570        1      647    1.00000000     
    571        1      648    1.00000000     
    572        1      649    1.00000000     
    573        1      650    1.00000000     
    574        1      651    1.00000000     
    575        1      652    1.00000000     
    576        1      653    1.00000000     
    577        1      654    1.00000000     
    578        1      655    1.00000000     
    579        1      656    1.00000000     
    580        1      657    1.00000000     
    581        1      658    1.00000000     
    582        1      659    1.00000000     
    583        1      660    1.00000000     
    584        1      661    1.00000000     
    585        1      662    1.00000000     
    586        1      663    1.00000000     
    587        1      664    1.00000000     
    588        1      667    1.00000000     
    589        1      668    1.00000000     
    590        1      669    1.00000000     
    591        1      670    1.00000000     
    592        1      671    1.00000000     
    593        1      672    1.00000000     
    594        1      673    1.00000000     
    595        1      674    1.00000000     
    596        1      675    1.00000000     
    597        1      676    1.00000000     
    598        1      677    1.00000000     
    599        1      678    1.00000000     
    600        1      679    1.00000000     
    601        1      680    1.00000000     
    602        1      681    1.00000000     
    603        1      682    1.00000000     
    604        1      683    1.00000000     
    605        1      684    1.00000000     
    606        1      685    1.00000000     
    607        1      686    1.00000000     
    608        1      687    1.00000000     
    609        1      688    1.00000000     
    610        1      689    1.00000000     
    611        1      690    1.00000000     
    612        1      691    1.00000000     
    613        1      692    1.00000000     
    614        1      693    1.00000000     
    615        1      694    1.00000000     
    616        1      695    1.00000000     
    617        1      696    1.00000000     
    618        1      697    1.00000000     
    619        1      698    1.00000000     
    620        1      699    1.00000000     
    621        1      700    1.00000000     
    622        1      701    1.00000000     
    623        1      702    1.00000000     
    624        1      703    1.00000000     
    625        1      704    1.00000000     
    626        1      705    1.00000000     
    627        1      706    1.00000000     
    628        1      707    1.00000000     
    629        1      708    1.00000000     
    630        1      709    1.00000000     
    631        1      710    1.00000000     
    632        1      711    1.00000000     
    633        1      712    1.00000000     
    634        1      713    1.00000000     
    635        1      714    1.00000000     
    636        1      715    1.00000000     
    637        1      716    1.00000000     
    638        1      717    1.00000000     
    639        1      718    1.00000000     
    640        1      719    1.00000000     
    641        1      720    1.00000000     
    642        1      721    1.00000000     
    643        1      722    1.00000000     
    644        1      723    1.00000000     
    645        1      724    1.00000000     
    646        1      725    1.00000000     
    647        1      726    1.00000000     
    648        1      727    1.00000000     
    649        1      728    1.00000000     
    650        1      729    1.00000000     
    651        1      730    1.00000000     
    652        1      731    1.00000000     
    653        1      732    1.00000000     
    654        1      733    1.00000000     
    655        1      734    1.00000000     
    656        1      735    1.00000000     
    657        1      736    1.00000000     
    658        1      737    1.00000000     
    659        1      738    1.00000000     
    660        1      739    1.00000000     
    661        1      740    1.00000000     
    662        1      741    1.00000000     
    663        1      742    1.00000000     
    664        1      743    1.00000000     
    665        1      744    1.00000000     
    666        1      745    1.00000000     
    667        1      746    1.00000000     
    668        1      749    1.00000000     
    669        1      750    1.00000000     
    670        1      751    1.00000000     
    671        1      752    1.00000000     
    672        1      753    1.00000000     
    673        1      754    1.00000000     
    674        1      755    1.00000000     
    675        1      756    1.00000000     
    676        1      757    1.00000000     
    677        1      758    1.00000000     
    678        1      759    1.00000000     
    679        1      760    1.00000000     
    680        1      761    1.00000000     
    681        1      762    1.00000000     
    682        1      763    1.00000000     
    683        1      764    1.00000000     
    684        1      765    1.00000000     
    685        1      766    1.00000000     
    686        1      767    1.00000000     
    687        1      768    1.00000000     
    688        1      769    1.00000000     
    689        1      770    1.00000000     
    690        1      771    1.00000000     
    691        1      772    1.00000000     
    692        1      773    1.00000000     
    693        1      774    1.00000000     
    694        1      775    1.00000000     
    695        1      776    1.00000000     
    696        1      777    1.00000000     
    697        1      778    1.00000000     
    698        1      779    1.00000000     
    699        1      780    1.00000000     
    700        1      781    1.00000000     
    701        1      782    1.00000000     
    702        1      783    1.00000000     
    703        1      784    1.00000000     
    704        1      785    1.00000000     
    705        1      786    1.00000000     
    706        1      787    1.00000000     
    707        1      788    1.00000000     
    708        1      789    1.00000000     
    709        1      790    1.00000000     
    710        1      791    1.00000000     
    711        1      792    1.00000000     
    712        1      793    1.00000000     
    713        1      794    1.00000000     
    714        1      795    1.00000000     
    715        1      796    1.00000000     
    716        1      797    1.00000000     
    717        1      798    1.00000000     
    718        1      799    1.00000000     
    719        1      800    1.00000000     
    720        1      801    1.00000000     
    721        1      802    1.00000000     
    722        1      803    1.00000000     
    723        1      804    1.00000000     
    724        1      805    1.00000000     
    725        1      806    1.00000000     
    726        1      807    1.00000000     
    727        1      808    1.00000000     
    728        1      809    1.00000000     
    729        1      810    1.00000000     
    730        1      811    1.00000000     
    731        1      812    1.00000000     
    732        1      813    1.00000000     
    733        1      814    1.00000000     
    734        1      815    1.00000000     
    735        1      816    1.00000000     
    736        1      817    1.00000000     
    737        1      818    1.00000000     
    738        1      819    1.00000000     
    739        1      820    1.00000000     
    740        1      821    1.00000000     
    741        1      822    1.00000000     
    742        1      823    1.00000000     
    743        1      824    1.00000000     
    744        1      825    1.00000000     
    745        1      826    1.00000000     
    746        1      827    1.00000000     
    747        1      828    1.00000000     
    748        1      829    1.00000000     
    749        1      832    1.00000000     
    750        1      833    1.00000000     
    751        1      834    1.00000000     
    752        1      835    1.00000000     
    753        1      836    1.00000000     
    754        1      837    1.00000000     
    755        1      838    1.00000000     
    756        1      839    1.00000000     
    757        1      840    1.00000000     
    758        1      841    1.00000000     
    759        1      842    1.00000000     
    760        1      843    1.00000000     
    761        1      844    1.00000000     
    762        1      845    1.00000000     
    763        1      846    1.00000000     
    764        1      847    1.00000000     
    765        1      848    1.00000000     
    766        1      849    1.00000000     
    767        1      850    1.00000000     
    768        1      851    1.00000000     
    769        1      852    1.00000000     
    770        1      853    1.00000000     
    771        1      854    1.00000000     
    772        1      855    1.00000000     
    773        1      856    1.00000000     
    774        1      857    1.00000000     
    775        1      858    1.00000000     
    776        1      859    1.00000000     
    777        1      860    1.00000000     
    778        1      861    1.00000000     
    779        1      862    1.00000000     
    780        1      863    1.00000000     
    781        1      864    1.00000000     
    782        1      865    1.00000000     
    783        1      866    1.00000000     
    784        1      867    1.00000000     
    785        1      868    1.00000000     
    786        1      869    1.00000000     
    787        1      870    1.00000000     
    788        1      871    1.00000000     
    789        1      872    1.00000000     
    790        1      873    1.00000000     
    791        1      874    1.00000000     
    792        1      875    1.00000000     
    793        1      876    1.00000000     
    794        1      877    1.00000000     
    795        1      878    1.00000000     
    796        1      879    1.00000000     
    797        1      880    1.00000000     
    798        1      881    1.00000000     
    799        1      882    1.00000000     
    800        1      883    1.00000000     
    801        1      884    1.00000000     
    802        1      885    1.00000000     
    803        1      886    1.00000000     
    804        1      887    1.00000000     
    805        1      888    1.00000000     
    806        1      889    1.00000000     
    807        1      890    1.00000000     
    808        1      891    1.00000000     
    809        1      892    1.00000000     
    810        1      893    1.00000000     
    811        1      894    1.00000000     
    812        1      895    1.00000000     
    813        1      896    1.00000000     
    814        1      897    1.00000000     
    815        1      898    1.00000000     
    816        1      899    1.00000000     
    817        1      900    1.00000000     
    818        1      901    1.00000000     
    819        1      902    1.00000000     
    820        1      903    1.00000000     
    821        1      904    1.00000000     
    822        1      905    1.00000000     
    823        1      906    1.00000000     
    824        1      907    1.00000000     
    825        1      908    1.00000000     
    826        1      909    1.00000000     
    827        1      910    1.00000000     
    828        1      911    1.00000000     
    829        1      912    1.00000000     
    830        1      915    1.00000000     
    831        1      916    1.00000000     
    832        1      917    1.00000000     
    833        1      918    1.00000000     
    834        1      919    1.00000000     
    835        1      920    1.00000000     
    836        1      921    1.00000000     
    837        1      922    1.00000000     
    838        1      923    1.00000000     
    839        1      924    1.00000000     
    840        1      925    1.00000000     
    841        1      926    1.00000000     
    842        1      927    1.00000000     
    843        1      928    1.00000000     
    844        1      929    1.00000000     
    845        1      930    1.00000000     
    846        1      931    1.00000000     
    847        1      932    1.00000000     
    848        1      933    1.00000000     
    849        1      934    1.00000000     
    850        1      935    1.00000000     
    851        1      936    1.00000000     
    852        1      937    1.00000000     
    853        1      938    1.00000000     
    854        1      939    1.00000000     
    855        1      940    1.00000000     
    856        1      941    1.00000000     
    857        1      942    1.00000000     
    858        1      943    1.00000000     
    859        1      944    1.00000000     
    860        1      945    1.00000000     
    861        1      946    1.00000000     
    862        1      947    1.00000000     
    863        1      948    1.00000000     
    864        1      949    1.00000000     
    865        1      950    1.00000000     
    866        1      951    1.00000000     
    867        1      952    1.00000000     
    868        1      953    1.00000000     
    869        1      954    1.00000000     
    870        1      955    1.00000000     
    871        1      956    1.00000000     
    872        1      957    1.00000000     
    873        1      958    1.00000000     
    874        1      959    1.00000000     
    875        1      960    1.00000000     
    876        1      961    1.00000000     
    877        1      962    1.00000000     
    878        1      963    1.00000000     
    879        1      964    1.00000000     
    880        1      965    1.00000000     
    881        1      966    1.00000000     
    882        1      967    1.00000000     
    883        1      968    1.00000000     
    884        1      969    1.00000000     
    885        1      970    1.00000000     
    886        1      971    1.00000000     
    887        1      972    1.00000000     
    888        1      973    1.00000000     
    889        1      974    1.00000000     
    890        1      975    1.00000000     
    891        1      976    1.00000000     
    892        1      977    1.00000000     
    893        1      978    1.00000000     
    894        1      979    1.00000000     
    895        1      980    1.00000000     
    896        1      981    1.00000000     
    897        1      982    1.00000000     
    898        1      983    1.00000000     
    899        1      984    1.00000000     
    900        1      985    1.00000000     
    901        1      986    1.00000000     
    902        1      987    1.00000000     
    903        1      988    1.00000000     
    904        1      989    1.00000000     
    905        1      990    1.00000000     
    906        1      991    1.00000000     
    907        1      992    1.00000000     
    908        1      993    1.00000000     
    909        1      994    1.00000000     
    910        1      995    1.00000000     
    911        1      998    1.00000000     
    912        1      999    1.00000000     
    913        1     1000    1.00000000     
    914        1     1001    1.00000000     
    915        1     1002    1.00000000     
    916        1     1003    1.00000000     
    917        1     1004    1.00000000     
    918        1     1005    1.00000000     
    919        1     1006    1.00000000     
    920        1     1007    1.00000000     
    921        1     1008    1.00000000     
    922        1     1009    1.00000000     
    923        1     1010    1.00000000     
    924        1     1011    1.00000000     
    925        1     1012    1.00000000     
    926        1     1013    1.00000000     
    927        1     1014    1.00000000     
    928        1     1015    1.00000000     
    929        1     1016    1.00000000     
    930        1     1017    1.00000000     
    931        1     1018    1.00000000     
    932        1     1019    1.00000000     
    933        1     1020    1.00000000     
    934        1     1021    1.00000000     
    935        1     1022    1.00000000     
    936        1     1023    1.00000000     
    937        1     1024    1.00000000     
    938        1     1025    1.00000000     
    939        1     1026    1.00000000     
    940        1     1027    1.00000000     
    941        1     1028    1.00000000     
    942        1     1029    1.00000000     
    943        1     1030    1.00000000     
    944        1     1031    1.00000000     
    945        1     1032    1.00000000     
    946        1     1033    1.00000000     
    947        1     1034    1.00000000     
    948        1     1035    1.00000000     
    949        1     1036    1.00000000     
    950        1     1037    1.00000000     
    951        1     1038    1.00000000     
    952        1     1039    1.00000000     
    953        1     1040    1.00000000     
    954        1     1041    1.00000000     
    955        1     1042    1.00000000     
    956        1     1043    1.00000000     
    957        1     1044    1.00000000     
    958        1     1045    1.00000000     
    959        1     1046    1.00000000     
    960        1     1047    1.00000000     
    961        1     1048    1.00000000     
    962        1     1049    1.00000000     
    963        1     1050    1.00000000     
    964        1     1051    1.00000000     
    965        1     1052    1.00000000     
    966        1     1053    1.00000000     
    967        1     1054    1.00000000     
    968        1     1055    1.00000000     
    969        1     1056    1.00000000     
    970        1     1057    1.00000000     
    971        1     1058    1.00000000     
    972        1     1059    1.00000000     
    973        1     1060    1.00000000     
    974        1     1061    1.00000000     
    975        1     1062    1.00000000     
    976        1     1063    1.00000000     
    977        1     1064    1.00000000     
    978        1     1065    1.00000000     
    979        1     1066    1.00000000     
    980        1     1067    1.00000000     
    981        1     1068    1.00000000     
    982        1     1069    1.00000000     
    983        1     1070    1.00000000     
    984        1     1071    1.00000000     
    985        1     1072    1.00000000     
    986        1     1073    1.00000000     
    987        1     1074    1.00000000     
    988        1     1075    1.00000000     
    989        1     1078    1.00000000     
    990        1     1079    1.00000000     
    991        1     1080    1.00000000     
    992        1     1081    1.00000000     
    993        1     1082    1.00000000     
    994        1     1083    1.00000000     
    995        1     1084    1.00000000     
    996        1     1085    1.00000000     
    997        1     1086    1.00000000     
    998        1     1087    1.00000000     
    999        1     1088    1.00000000     
    1000       1     1089    1.00000000     
    1001       1     1090    1.00000000     
    1002       1     1091    1.00000000     
    1003       1     1092    1.00000000     
    1004       1     1093    1.00000000     
    1005       1     1094    1.00000000     
    1006       1     1095    1.00000000     
    1007       1     1096    1.00000000     
    1008       1     1097    1.00000000     
    1009       1     1098    1.00000000     
    1010       1     1099    1.00000000     
    1011       1     1100    1.00000000     
    1012       1     1101    1.00000000     
    1013       1     1102    1.00000000     
    1014       1     1103    1.00000000     
    1015       1     1104    1.00000000     
    1016       1     1105    1.00000000     
    1017       1     1106    1.00000000     
    1018       1     1107    1.00000000     
    1019       1     1108    1.00000000     
    1020       1     1109    1.00000000     
    1021       1     1110    1.00000000     
    1022       1     1111    1.00000000     
    1023       1     1112    1.00000000     
    1024       1     1113    1.00000000     
    1025       1     1114    1.00000000     
    1026       1     1115    1.00000000     
    1027       1     1116    1.00000000     
    1028       1     1117    1.00000000     
    1029       1     1118    1.00000000     
    1030       1     1119    1.00000000     
    1031       1     1120    1.00000000     
    1032       1     1121    1.00000000     
    1033       1     1122    1.00000000     
    1034       1     1123    1.00000000     
    1035       1     1124    1.00000000     
    1036       1     1125    1.00000000     
    1037       1     1126    1.00000000     
    1038       1     1127    1.00000000     
    1039       1     1128    1.00000000     
    1040       1     1129    1.00000000     
    1041       1     1130    1.00000000     
    1042       1     1131    1.00000000     
    1043       1     1132    1.00000000     
    1044       1     1133    1.00000000     
    1045       1     1134    1.00000000     
    1046       1     1135    1.00000000     
    1047       1     1136    1.00000000     
    1048       1     1137    1.00000000     
    1049       1     1138    1.00000000     
    1050       1     1139    1.00000000     
    1051       1     1140    1.00000000     
    1052       1     1141    1.00000000     
    1053       1     1142    1.00000000     
    1054       1     1143    1.00000000     
    1055       1     1144    1.00000000     
    1056       1     1145    1.00000000     
    1057       1     1146    1.00000000     
    1058       1     1147    1.00000000     
    1059       1     1148    1.00000000     
    1060       1     1149    1.00000000     
    1061       1     1150    1.00000000     
    1062       1     1151    1.00000000     
    1063       1     1152    1.00000000     
    1064       1     1153    1.00000000     
    1065       1     1154    1.00000000     
    1066       1     1155    1.00000000     
    1067       1     1158    1.00000000     
    1068       1     1159    1.00000000     
    1069       1     1160    1.00000000     
    1070       1     1161    1.00000000     
    1071       1     1162    1.00000000     
    1072       1     1163    1.00000000     
    1073       1     1164    1.00000000     
    1074       1     1165    1.00000000     
    1075       1     1166    1.00000000     
    1076       1     1167    1.00000000     
    1077       1     1168    1.00000000     
    1078       1     1169    1.00000000     
    1079       1     1170    1.00000000     
    1080       1     1171    1.00000000     
    1081       1     1172    1.00000000     
    1082       1     1173    1.00000000     
    1083       1     1174    1.00000000     
    1084       1     1175    1.00000000     
    1085       1     1176    1.00000000     
    1086       1     1177    1.00000000     
    1087       1     1178    1.00000000     
    1088       1     1179    1.00000000     
    1089       1     1180    1.00000000     
    1090       1     1181    1.00000000     
    1091       1     1182    1.00000000     
    1092       1     1183    1.00000000     
    1093       1     1184    1.00000000     
    1094       1     1185    1.00000000     
    1095       1     1186    1.00000000     
    1096       1     1187    1.00000000     
    1097       1     1188    1.00000000     
    1098       1     1189    1.00000000     
    1099       1     1190    1.00000000     
    1100       1     1191    1.00000000     
    1101       1     1192    1.00000000     
    1102       1     1193    1.00000000     
    1103       1     1194    1.00000000     
    1104       1     1195    1.00000000     
    1105       1     1196    1.00000000     
    1106       1     1197    1.00000000     
    1107       1     1198    1.00000000     
    1108       1     1199    1.00000000     
    1109       1     1200    1.00000000     
    1110       1     1201    1.00000000     
    1111       1     1202    1.00000000     
    1112       1     1203    1.00000000     
    1113       1     1204    1.00000000     
    1114       1     1205    1.00000000     
    1115       1     1206    1.00000000     
    1116       1     1207    1.00000000     
    1117       1     1208    1.00000000     
    1118       1     1209    1.00000000     
    1119       1     1210    1.00000000     
    1120       1     1211    1.00000000     
    1121       1     1212    1.00000000     
    1122       1     1213    1.00000000     
    1123       1     1214    1.00000000     
    1124       1     1215    1.00000000     
    1125       1     1216    1.00000000     
    1126       1     1217    1.00000000     
    1127       1     1218    1.00000000     
    1128       1     1219    1.00000000     
    1129       1     1220    1.00000000     
    1130       1     1221    1.00000000     
    1131       1     1222    1.00000000     
    1132       1     1223    1.00000000     
    1133       1     1224    1.00000000     
    1134       1     1225    1.00000000     
    1135       1     1226    1.00000000     
    1136       1     1227    1.00000000     
    1137       1     1228    1.00000000     
    1138       1     1229    1.00000000     
    1139       1     1230    1.00000000     
    1140       1     1231    1.00000000     
    1141       1     1232    1.00000000     
    1142       1     1233    1.00000000     
    1143       1     1234    1.00000000     
    1144       1     1235    1.00000000     
    1145       1     1236    1.00000000     
    1146       1     1237    1.00000000     
    1147       1     1238    1.00000000     
    1148       1     1241    1.00000000     
    1149       1     1242    1.00000000     
    1150       1     1243    1.00000000     
    1151       1     1244    1.00000000     
    1152       1     1245    1.00000000     
    1153       1     1246    1.00000000     
    1154       1     1247    1.00000000     
    1155       1     1248    1.00000000     
    1156       1     1249    1.00000000     
    1157       1     1250    1.00000000     
    1158       1     1251    1.00000000     
    1159       1     1252    1.00000000     
    1160       1     1253    1.00000000     
    1161       1     1254    1.00000000     
    1162       1     1255    1.00000000     
    1163       1     1256    1.00000000     
    1164       1     1257    1.00000000     
    1165       1     1258    1.00000000     
    1166       1     1259    1.00000000     
    1167       1     1260    1.00000000     
    1168       1     1261    1.00000000     
    1169       1     1262    1.00000000     
    1170       1     1263    1.00000000     
    1171       1     1264    1.00000000     
    1172       1     1265    1.00000000     
    1173       1     1266    1.00000000     
    1174       1     1267    1.00000000     
    1175       1     1268    1.00000000     
    1176       1     1269    1.00000000     
    1177       1     1270    1.00000000     
    1178       1     1271    1.00000000     
    1179       1     1272    1.00000000     
    1180       1     1273    1.00000000     
    1181       1     1274    1.00000000     
    1182       1     1275    1.00000000     
    1183       1     1276    1.00000000     
    1184       1     1277    1.00000000     
    1185       1     1278    1.00000000     
    1186       1     1279    1.00000000     
    1187       1     1280    1.00000000     
    1188       1     1281    1.00000000     
    1189       1     1282    1.00000000     
    1190       1     1283    1.00000000     
    1191       1     1284    1.00000000     
    1192       1     1285    1.00000000     
    1193       1     1286    1.00000000     
    1194       1     1287    1.00000000     
    1195       1     1288    1.00000000     
    1196       1     1289    1.00000000     
    1197       1     1290    1.00000000     
    1198       1     1291    1.00000000     
    1199       1     1292    1.00000000     
    1200       1     1293    1.00000000     
    1201       1     1294    1.00000000     
    1202       1     1295    1.00000000     
    1203       1     1296    1.00000000     
    1204       1     1297    1.00000000     
    1205       1     1298    1.00000000     
    1206       1     1299    1.00000000     
    1207       1     1300    1.00000000     
    1208       1     1301    1.00000000     
    1209       1     1302    1.00000000     
    1210       1     1303    1.00000000     
    1211       1     1304    1.00000000     
    1212       1     1305    1.00000000     
    1213       1     1306    1.00000000     
    1214       1     1307    1.00000000     
    1215       1     1308    1.00000000     
    1216       1     1309    1.00000000     
    1217       1     1310    1.00000000     
    1218       1     1311    1.00000000     
    1219       1     1312    1.00000000     
    1220       1     1313    1.00000000     
    1221       1     1314    1.00000000     
    1222       1     1315    1.00000000     
    1223       1     1316    1.00000000     
    1224       1     1317    1.00000000     
    1225       1     1318    1.00000000     
    1226       1     1320    1.00000000     
    1227       1     1321    1.00000000     
    1228       1     1322    1.00000000     
    1229       1     1323    1.00000000     
    1230       1     1324    1.00000000     
    1231       1     1325    1.00000000     
    1232       1     1326    1.00000000     
    1233       1     1327    1.00000000     
    1234       1     1328    1.00000000     
    1235       1     1329    1.00000000     
    1236       1     1330    1.00000000     
    1237       1     1331    1.00000000     
    1238       1     1332    1.00000000     
    1239       1     1333    1.00000000     
    1240       1     1334    1.00000000     
    1241       1     1335    1.00000000     
    1242       1     1336    1.00000000     
    1243       1     1337    1.00000000     
    1244       1     1338    1.00000000     
    1245       1     1339    1.00000000     
    1246       1     1340    1.00000000     
    1247       1     1341    1.00000000     
    1248       1     1342    1.00000000     
    1249       1     1343    1.00000000     
    1250       1     1344    1.00000000     
    1251       1     1345    1.00000000     
    1252       1     1346    1.00000000     
    1253       1     1347    1.00000000     
    1254       1     1348    1.00000000     
    1255       1     1349    1.00000000     
    1256       1     1350    1.00000000     
    1257       1     1351    1.00000000     
    1258       1     1352    1.00000000     
    1259       1     1353    1.00000000     
    1260       1     1354    1.00000000     
    1261       1     1355    1.00000000     
    1262       1     1356    1.00000000     
    1263       1     1357    1.00000000     
    1264       1     1358    1.00000000     
    1265       1     1359    1.00000000     
    1266       1     1360    1.00000000     
    1267       1     1361    1.00000000     
    1268       1     1362    1.00000000     
    1269       1     1363    1.00000000     
    1270       1     1364    1.00000000     
    1271       1     1365    1.00000000     
    1272       1     1366    1.00000000     
    1273       1     1367    1.00000000     
    1274       1     1368    1.00000000     
    1275       1     1369    1.00000000     
    1276       1     1370    1.00000000     
    1277       1     1371    1.00000000     
    1278       1     1372    1.00000000     
    1279       1     1373    1.00000000     
    1280       1     1374    1.00000000     
    1281       1     1375    1.00000000     
    1282       1     1376    1.00000000     
    1283       1     1377    1.00000000     
    1284       1     1378    1.00000000     
    1285       1     1379    1.00000000     
    1286       1     1380    1.00000000     
    1287       1     1381    1.00000000     
    1288       1     1382    1.00000000     
    1289       1     1383    1.00000000     
    1290       1     1384    1.00000000     
    1291       1     1385    1.00000000     
    1292       1     1386    1.00000000     
    1293       1     1387    1.00000000     
    1294       1     1388    1.00000000     
    1295       1     1389    1.00000000     
    1296       1     1390    1.00000000     
    1297       1     1391    1.00000000     
    1298       1     1392    1.00000000     
    1299       1     1393    1.00000000     
    1300       1     1394    1.00000000     
    1301       1     1395    1.00000000     
    1302       1     1396    1.00000000     
    1303       1     1397    1.00000000     
    1304       1     1400    1.00000000     
    1305       1     1401    1.00000000     
    1306       1     1402    1.00000000     
    1307       1     1403    1.00000000     
    1308       1     1404    1.00000000     
    1309       1     1405    1.00000000     
    1310       1     1406    1.00000000     
    1311       1     1407    1.00000000     
    1312       1     1408    1.00000000     
    1313       1     1409    1.00000000     
    1314       1     1410    1.00000000     
    1315       1     1411    1.00000000     
    1316       1     1412    1.00000000     
    1317       1     1413    1.00000000     
    1318       1     1414    1.00000000     
    1319       1     1415    1.00000000     
    1320       1     1416    1.00000000     
    1321       1     1417    1.00000000     
    1322       1     1418    1.00000000     
    1323       1     1419    1.00000000     
    1324       1     1420    1.00000000     
    1325       1     1421    1.00000000     
    1326       1     1422    1.00000000     
    1327       1     1423    1.00000000     
    1328       1     1424    1.00000000     
    1329       1     1425    1.00000000     
    1330       1     1426    1.00000000     
    1331       1     1427    1.00000000     
    1332       1     1428    1.00000000     
    1333       1     1429    1.00000000     
    1334       1     1430    1.00000000     
    1335       1     1431    1.00000000     
    1336       1     1432    1.00000000     
    1337       1     1433    1.00000000     
    1338       1     1434    1.00000000     
    1339       1     1435    1.00000000     
    1340       1     1436    1.00000000     
    1341       1     1437    1.00000000     
    1342       1     1438    1.00000000     
    1343       1     1439    1.00000000     
    1344       1     1440    1.00000000     
    1345       1     1441    1.00000000     
    1346       1     1442    1.00000000     
    1347       1     1443    1.00000000     
    1348       1     1444    1.00000000     
    1349       1     1445    1.00000000     
    1350       1     1446    1.00000000     
    1351       1     1447    1.00000000     
    1352       1     1448    1.00000000     
    1353       1     1449    1.00000000     
    1354       1     1450    1.00000000     
    1355       1     1451    1.00000000     
    1356       1     1452    1.00000000     
    1357       1     1453    1.00000000     
    1358       1     1454    1.00000000     
    1359       1     1455    1.00000000     
    1360       1     1456    1.00000000     
    1361       1     1457    1.00000000     
    1362       1     1458    1.00000000     
    1363       1     1459    1.00000000     
    1364       1     1460    1.00000000     
    1365       1     1461    1.00000000     
    1366       1     1462    1.00000000     
    1367       1     1463    1.00000000     
    1368       1     1464    1.00000000     
    1369       1     1465    1.00000000     
    1370       1     1466    1.00000000     
    1371       1     1467    1.00000000     
    1372       1     1468    1.00000000     
    1373       1     1469    1.00000000     
    1374       1     1470    1.00000000     
    1375       1     1471    1.00000000     
    1376       1     1472    1.00000000     
    1377       1     1473    1.00000000     
    1378       1     1474    1.00000000     
    1379       1     1475    1.00000000     
    1380       1     1476    1.00000000     
    1381       1     1477    1.00000000     
    1382       1     1478    1.00000000     
    1383       1     1479    1.00000000     
    1384       1     1480    1.00000000     
    1385       1     1481    1.00000000     
    1386       1     1482    1.00000000     
    1387       1     1483    1.00000000     
    1388       1     1484    1.00000000     
    1389       1     1487    1.00000000     
    1390       1     1488    1.00000000     
    1391       1     1489    1.00000000     
    1392       1     1490    1.00000000     
    1393       1     1491    1.00000000     
    1394       1     1492    1.00000000     
    1395       1     1493    1.00000000     
    1396       1     1494    1.00000000     
    1397       1     1495    1.00000000     
    1398       1     1496    1.00000000     
    1399       1     1497    1.00000000     
    1400       1     1498    1.00000000     
    1401       1     1499    1.00000000     
    1402       1     1500    1.00000000     
    1403       1     1501    1.00000000     
    1404       1     1502    1.00000000     
    1405       1     1503    1.00000000     
    1406       1     1504    1.00000000     
    1407       1     1505    1.00000000     
    1408       1     1506    1.00000000     
    1409       1     1507    1.00000000     
    1410       1     1508    1.00000000     
    1411       1     1509    1.00000000     
    1412       1     1510    1.00000000     
    1413       1     1511    1.00000000     
    1414       1     1512    1.00000000     
    1415       1     1513    1.00000000     
    1416       1     1514    1.00000000     
    1417       1     1515    1.00000000     
    1418       1     1516    1.00000000     
    1419       1     1517    1.00000000     
    1420       1     1518    1.00000000     
    1421       1     1519    1.00000000     
    1422       1     1520    1.00000000     
    1423       1     1521    1.00000000     
    1424       1     1522    1.00000000     
    1425       1     1523    1.00000000     
    1426       1     1524    1.00000000     
    1427       1     1525    1.00000000     
    1428       1     1526    1.00000000     
    1429       1     1527    1.00000000     
    1430       1     1528    1.00000000     
    1431       1     1529    1.00000000     
    1432       1     1530    1.00000000     
    1433       1     1531    1.00000000     
    1434       1     1532    1.00000000     
    1435       1     1533    1.00000000     
    1436       1     1534    1.00000000     
    1437       1     1535    1.00000000     
    1438       1     1536    1.00000000     
    1439       1     1537    1.00000000     
    1440       1     1538    1.00000000     
    1441       1     1539    1.00000000     
    1442       1     1540    1.00000000     
    1443       1     1541    1.00000000     
    1444       1     1542    1.00000000     
    1445       1     1543    1.00000000     
    1446       1     1544    1.00000000     
    1447       1     1545    1.00000000     
    1448       1     1546    1.00000000     
    1449       1     1547    1.00000000     
    1450       1     1548    1.00000000     
    1451       1     1549    1.00000000     
    1452       1     1550    1.00000000     
    1453       1     1551    1.00000000     
    1454       1     1552    1.00000000     
    1455       1     1553    1.00000000     
    1456       1     1554    1.00000000     
    1457       1     1555    1.00000000     
    1458       1     1556    1.00000000     
    1459       1     1557    1.00000000     
    1460       1     1558    1.00000000     
    1461       1     1559    1.00000000     
    1462       1     1560    1.00000000     
    1463       1     1561    1.00000000     
    1464       1     1562    1.00000000     
    1465       1     1563    1.00000000     
    1466       1     1564    1.00000000     
    1467       1     1565    1.00000000     
    1468       1     1566    1.00000000     
    1469       1     1567    1.00000000     
    1470       1     1568    1.00000000     
    1471       1     1569    1.00000000     
    1472       1     1570    1.00000000     
    1473       1     1571    1.00000000     
    1474       1     1572    1.00000000     
    1475       1     1573    1.00000000     
    1476       1     1574    1.00000000     
    1477       1     1575    1.00000000     
    1478       1     1576    1.00000000     
    1479       1     1577    1.00000000     
    1480       1     1578    1.00000000     
    1481       1     1579    1.00000000     
    1482       1     1582    1.00000000     
    1483       1     1583    1.00000000     
    1484       1     1584    1.00000000     
    1485       1     1585    1.00000000     
    1486       1     1586    1.00000000     
    1487       1     1587    1.00000000     
    1488       1     1588    1.00000000     
    1489       1     1589    1.00000000     
    1490       1     1590    1.00000000     
    1491       1     1591    1.00000000     
    1492       1     1592    1.00000000     
    1493       1     1593    1.00000000     
    1494       1     1594    1.00000000     
    1495       1     1595    1.00000000     
    1496       1     1596    1.00000000     
    1497       1     1597    1.00000000     
    1498       1     1598    1.00000000     
    1499       1     1599    1.00000000     
    1500       1     1600    1.00000000     
    1501       1     1601    1.00000000     
    1502       1     1602    1.00000000     
    1503       1     1603    1.00000000     
    1504       1     1604    1.00000000     
    1505       1     1605    1.00000000     
    1506       1     1606    1.00000000     
    1507       1     1607    1.00000000     
    1508       1     1608    1.00000000     
    1509       1     1609    1.00000000     
    1510       1     1610    1.00000000     
    1511       1     1611    1.00000000     
    1512       1     1612    1.00000000     
    1513       1     1613    1.00000000     
    1514       1     1614    1.00000000     
    1515       1     1615    1.00000000     
    1516       1     1616    1.00000000     
    1517       1     1617    1.00000000     
    1518       1     1618    1.00000000     
    1519       1     1619    1.00000000     
    1520       1     1620    1.00000000     
    1521       1     1621    1.00000000     
    1522       1     1622    1.00000000     
    1523       1     1623    1.00000000     
    1524       1     1624    1.00000000     
    1525       1     1625    1.00000000     
    1526       1     1626    1.00000000     
    1527       1     1627    1.00000000     
    1528       1     1628    1.00000000     
    1529       1     1629    1.00000000     
    1530       1     1630    1.00000000     
    1531       1     1631    1.00000000     
    1532       1     1632    1.00000000     
    1533       1     1633    1.00000000     
    1534       1     1634    1.00000000     
    1535       1     1635    1.00000000     
    1536       1     1636    1.00000000     
    1537       1     1637    1.00000000     
    1538       1     1638    1.00000000     
    1539       1     1639    1.00000000     
    1540       1     1640    1.00000000     
    1541       1     1641    1.00000000     
    1542       1     1642    1.00000000     
    1543       1     1643    1.00000000     
    1544       1     1644    1.00000000     
    1545       1     1645    1.00000000     
    1546       1     1646    1.00000000     
    1547       1     1647    1.00000000     
    1548       1     1648    1.00000000     
    1549       1     1649    1.00000000     
    1550       1     1650    1.00000000     
    1551       1     1651    1.00000000     
    1552       1     1652    1.00000000     
    1553       1     1653    1.00000000     
    1554       1     1654    1.00000000     
    1555       1     1655    1.00000000     
    1556       1     1656    1.00000000     
    1557       1     1657    1.00000000     
    1558       1     1658    1.00000000     
    1559       1     1659    1.00000000     
    1560       1     1660    1.00000000     
    1561       1     1661    1.00000000     
    1562       1     1662    1.00000000     
    1563       1     1663    1.00000000     
    1564       1     1664    1.00000000     
    1565       1     1665    1.00000000     
    1566       1     1666    1.00000000     
    1567       1     1667    1.00000000     
    1568       1     1668    1.00000000     
    1569       1     1669    1.00000000     
    1570       1     1670    1.00000000     
    1571       1     1671    1.00000000     
    1572       1     1672    1.00000000     
    1573       1     1673    1.00000000     
    1574       1     1674    1.00000000     
    1575       1     1675    1.00000000     
    1576       1     1676    1.00000000     
    1577       1     1677    1.00000000     
    1578       1     1678    1.00000000     
    1579       1     1679    1.00000000     
    1580       1     1680    1.00000000     
    1581       1     1681    1.00000000     
    1582       1     1682    1.00000000     
    1583       1     1683    1.00000000     
    1584       1     1684    1.00000000     
    1585       1     1685    1.00000000     
    1586       1     1686    1.00000000     
    1587       1     1687    1.00000000     
    1588       1     1688    1.00000000     
    1589       1     1689    1.00000000     
    1590       1     1690    1.00000000     
    1591       1     1691    1.00000000     
    1592       1     1694    1.00000000     
    1593       1     1695    1.00000000     
    1594       1     1696    1.00000000     
    1595       1     1697    1.00000000     
    1596       1     1698    1.00000000     
    1597       1     1699    1.00000000     
    1598       1     1700    1.00000000     
    1599       1     1701    1.00000000     
    1600       1     1702    1.00000000     
    1601       1     1703    1.00000000     
    1602       1     1704    1.00000000     
    1603       1     1705    1.00000000     
    1604       1     1706    1.00000000     
    1605       1     1707    1.00000000     
    1606       1     1708    1.00000000     
    1607       1     1709    1.00000000     
    1608       1     1710    1.00000000     
    1609       1     1711    1.00000000     
    1610       1     1712    1.00000000     
    1611       1     1713    1.00000000     
    1612       1     1714    1.00000000     
    1613       1     1715    1.00000000     
    1614       1     1716    1.00000000     
    1615       1     1717    1.00000000     
    1616       1     1718    1.00000000     
    1617       1     1719    1.00000000     
    1618       1     1720    1.00000000     
    1619       1     1721    1.00000000     
    1620       1     1722    1.00000000     
    1621       1     1723    1.00000000     
    1622       1     1724    1.00000000     
    1623       1     1725    1.00000000     
    1624       1     1726    1.00000000     
    1625       1     1727    1.00000000     
    1626       1     1728    1.00000000     
    1627       1     1729    1.00000000     
    1628       1     1730    1.00000000     
    1629       1     1731    1.00000000     
    1630       1     1732    1.00000000     
    1631       1     1733    1.00000000     
    1632       1     1734    1.00000000     
    1633       1     1735    1.00000000     
    1634       1     1736    1.00000000     
    1635       1     1737    1.00000000     
    1636       1     1738    1.00000000     
    1637       1     1739    1.00000000     
    1638       1     1740    1.00000000     
    1639       1     1741    1.00000000     
    1640       1     1742    1.00000000     
    1641       1     1743    1.00000000     
    1642       1     1744    1.00000000     
    1643       1     1745    1.00000000     
    1644       1     1746    1.00000000     
    1645       1     1747    1.00000000     
    1646       1     1748    1.00000000     
    1647       1     1749    1.00000000     
    1648       1     1750    1.00000000     
    1649       1     1751    1.00000000     
    1650       1     1752    1.00000000     
    1651       1     1753    1.00000000     
    1652       1     1754    1.00000000     
    1653       1     1755    1.00000000     
    1654       1     1756    1.00000000     
    1655       1     1757    1.00000000     
    1656       1     1758    1.00000000     
    1657       1     1759    1.00000000     
    1658       1     1760    1.00000000     
    1659       1     1761    1.00000000     
    1660       1     1762    1.00000000     
    1661       1     1763    1.00000000     
    1662       1     1764    1.00000000     
    1663       1     1765    1.00000000     
    1664       1     1766    1.00000000     
    1665       1     1767    1.00000000     
    1666       1     1768    1.00000000     
    1667       1     1769    1.00000000     
    1668       1     1770    1.00000000     
    1669       1     1771    1.00000000     
    1670       1     1772    1.00000000     
    1671       1     1773    1.00000000     
    1672       1     1774    1.00000000     
    1673       1     1775    1.00000000     
    1674       1     1778    1.00000000     
    1675       1     1779    1.00000000     
    1676       1     1780    1.00000000     
    1677       1     1781    1.00000000     
    1678       1     1782    1.00000000     
    1679       1     1783    1.00000000     
    1680       1     1784    1.00000000     
    1681       1     1785    1.00000000     
    1682       1     1786    1.00000000     
    1683       1     1787    1.00000000     
    1684       1     1788    1.00000000     
    1685       1     1789    1.00000000     
    1686       1     1790    1.00000000     
    1687       1     1791    1.00000000     
    1688       1     1792    1.00000000     
    1689       1     1793    1.00000000     
    1690       1     1794    1.00000000     
    1691       1     1795    1.00000000     
    1692       1     1796    1.00000000     
    1693       1     1797    1.00000000     
    1694       1     1798    1.00000000     
    1695       1     1799    1.00000000     
    1696       1     1800    1.00000000     
    1697       1     1801    1.00000000     
    1698       1     1802    1.00000000     
    1699       1     1803    1.00000000     
    1700       1     1804    1.00000000     
    1701       1     1805    1.00000000     
    1702       1     1806    1.00000000     
    1703       1     1807    1.00000000     
    1704       1     1808    1.00000000     
    1705       1     1809    1.00000000     
    1706       1     1810    1.00000000     
    1707       1     1811    1.00000000     
    1708       1     1812    1.00000000     
    1709       1     1813    1.00000000     
    1710       1     1814    1.00000000     
    1711       1     1815    1.00000000     
    1712       1     1816    1.00000000     
    1713       1     1817    1.00000000     
    1714       1     1818    1.00000000     
    1715       1     1819    1.00000000     
    1716       1     1820    1.00000000     
    1717       1     1821    1.00000000     
    1718       1     1822    1.00000000     
    1719       1     1823    1.00000000     
    1720       1     1824    1.00000000     
    1721       1     1825    1.00000000     
    1722       1     1826    1.00000000     
    1723       1     1827    1.00000000     
    1724       1     1828    1.00000000     
    1725       1     1829    1.00000000     
    1726       1     1830    1.00000000     
    1727       1     1831    1.00000000     
    1728       1     1832    1.00000000     
    1729       1     1833    1.00000000     
    1730       1     1834    1.00000000     
    1731       1     1835    1.00000000     
    1732       1     1836    1.00000000     
    1733       1     1837    1.00000000     
    1734       1     1838    1.00000000     
    1735       1     1839    1.00000000     
    1736       1     1840    1.00000000     
    1737       1     1841    1.00000000     
    1738       1     1842    1.00000000     
    1739       1     1843    1.00000000     
    1740       1     1844    1.00000000     
    1741       1     1845    1.00000000     
    1742       1     1846    1.00000000     
    1743       1     1847    1.00000000     
    1744       1     1848    1.00000000     
    1745       1     1849    1.00000000     
    1746       1     1850    1.00000000     
    1747       1     1851    1.00000000     
    1748       1     1852    1.00000000     
    1749       1     1855    1.00000000     
    1750       1     1856    1.00000000     
    1751       1     1857    1.00000000     
    1752       1     1858    1.00000000     
    1753       1     1859    1.00000000     
    1754       1     1860    1.00000000     
    1755       1     1861    1.00000000     
    1756       1     1862    1.00000000     
    1757       1     1863    1.00000000     
    1758       1     1864    1.00000000     
    1759       1     1865    1.00000000     
    1760       1     1866    1.00000000     
    1761       1     1867    1.00000000     
    1762       1     1868    1.00000000     
    1763       1     1869    1.00000000     
    1764       1     1870    1.00000000     
    1765       1     1871    1.00000000     
    1766       1     1872    1.00000000     
    1767       1     1873    1.00000000     
    1768       1     1874    1.00000000     
    1769       1     1875    1.00000000     
    1770       1     1876    1.00000000     
    1771       1     1877    1.00000000     
    1772       1     1878    1.00000000     
    1773       1     1879    1.00000000     
    1774       1     1880    1.00000000     
    1775       1     1881    1.00000000     
    1776       1     1882    1.00000000     
    1777       1     1883    1.00000000     
    1778       1     1884    1.00000000     
    1779       1     1885    1.00000000     
    1780       1     1886    1.00000000     
    1781       1     1887    1.00000000     
    1782       1     1888    1.00000000     
    1783       1     1889    1.00000000     
    1784       1     1890    1.00000000     
    1785       1     1891    1.00000000     
    1786       1     1892    1.00000000     
    1787       1     1893    1.00000000     
    1788       1     1894    1.00000000     
    1789       1     1895    1.00000000     
    1790       1     1896    1.00000000     
    1791       1     1897    1.00000000     
    1792       1     1898    1.00000000     
    1793       1     1899    1.00000000     
    1794       1     1900    1.00000000     
    1795       1     1901    1.00000000     
    1796       1     1902    1.00000000     
    1797       1     1903    1.00000000     
    1798       1     1904    1.00000000     
    1799       1     1905    1.00000000     
    1800       1     1906    1.00000000     
    1801       1     1907    1.00000000     
    1802       1     1908    1.00000000     
    1803       1     1909    1.00000000     
    1804       1     1910    1.00000000     
    1805       1     1911    1.00000000     
    1806       1     1912    1.00000000     
    1807       1     1913    1.00000000     
    1808       1     1914    1.00000000     
    1809       1     1915    1.00000000     
    1810       1     1916    1.00000000     
    1811       1     1917    1.00000000     
    1812       1     1918    1.00000000     
    1813       1     1919    1.00000000     
    1814       1     1920    1.00000000     
    1815       1     1921    1.00000000     
    1816       1     1922    1.00000000     
    1817       1     1923    1.00000000     
    1818       1     1924    1.00000000     
    1819       1     1925    1.00000000     
    1820       1     1926    1.00000000     
    1821       1     1927    1.00000000     
    1822       1     1928    1.00000000     
    1823       1     1931    1.00000000     
    1824       1     1932    1.00000000     
    1825       1     1933    1.00000000     
    1826       1     1934    1.00000000     
    1827       1     1935    1.00000000     
    1828       1     1936    1.00000000     
    1829       1     1937    1.00000000     
    1830       1     1938    1.00000000     
    1831       1     1939    1.00000000     
    1832       1     1940    1.00000000     
    1833       1     1941    1.00000000     
    1834       1     1942    1.00000000     
    1835       1     1943    1.00000000     
    1836       1     1944    1.00000000     
    1837       1     1945    1.00000000     
    1838       1     1946    1.00000000     
    1839       1     1947    1.00000000     
    1840       1     1948    1.00000000     
    1841       1     1949    1.00000000     
    1842       1     1950    1.00000000     
    1843       1     1951    1.00000000     
    1844       1     1952    1.00000000     
    1845       1     1953    1.00000000     
    1846       1     1954    1.00000000     
    1847       1     1955    1.00000000     
    1848       1     1956    1.00000000     
    1849       1     1957    1.00000000     
    1850       1     1958    1.00000000     
    1851       1     1959    1.00000000     
    1852       1     1960    1.00000000     
    1853       1     1961    1.00000000     
    1854       1     1962    1.00000000     
    1855       1     1963    1.00000000     
    1856       1     1964    1.00000000     
    1857       1     1965    1.00000000     
    1858       1     1966    1.00000000     
    1859       1     1967    1.00000000     
    1860       1     1968    1.00000000     
    1861       1     1969    1.00000000     
    1862       1     1970    1.00000000     
    1863       1     1971    1.00000000     
    1864       1     1972    1.00000000     
    1865       1     1973    1.00000000     
    1866       1     1974    1.00000000     
    1867       1     1975    1.00000000     
    1868       1     1976    1.00000000     
    1869       1     1977    1.00000000     
    1870       1     1978    1.00000000     
    1871       1     1979    1.00000000     
    1872       1     1980    1.00000000     
    1873       1     1981    1.00000000     
    1874       1     1982    1.00000000     
    1875       1     1983    1.00000000     
    1876       1     1984    1.00000000     
    1877       1     1985    1.00000000     
    1878       1     1986    1.00000000     
    1879       1     1987    1.00000000     
    1880       1     1988    1.00000000     
    1881       1     1989    1.00000000     
    1882       1     1990    1.00000000     
    1883       1     1991    1.00000000     
    1884       1     1992    1.00000000     
    1885       1     1993    1.00000000     
    1886       1     1994    1.00000000     
    1887       1     1995    1.00000000     
    1888       1     1996    1.00000000     
    1889       1     1997    1.00000000     
    1890       1     1998    1.00000000     
    1891       1     1999    1.00000000     
    1892       1     2000    1.00000000     
    1893       1     2001    1.00000000     
    1894       1     2002    1.00000000     
    1895       1     2003    1.00000000     
    1896       1     2006    1.00000000     
    1897       1     2007    1.00000000     
    1898       1     2008    1.00000000     
    1899       1     2009    1.00000000     
    1900       1     2010    1.00000000     
    1901       1     2011    1.00000000     
    1902       1     2012    1.00000000     
    1903       1     2013    1.00000000     
    1904       1     2014    1.00000000     
    1905       1     2015    1.00000000     
    1906       1     2016    1.00000000     
    1907       1     2017    1.00000000     
    1908       1     2018    1.00000000     
    1909       1     2019    1.00000000     
    1910       1     2020    1.00000000     
    1911       1     2021    1.00000000     
    1912       1     2022    1.00000000     
    1913       1     2023    1.00000000     
    1914       1     2024    1.00000000     
    1915       1     2025    1.00000000     
    1916       1     2026    1.00000000     
    1917       1     2027    1.00000000     
    1918       1     2028    1.00000000     
    1919       1     2029    1.00000000     
    1920       1     2030    1.00000000     
    1921       1     2031    1.00000000     
    1922       1     2032    1.00000000     
    1923       1     2033    1.00000000     
    1924       1     2034    1.00000000     
    1925       1     2035    1.00000000     
    1926       1     2036    1.00000000     
    1927       1     2037    1.00000000     
    1928       1     2038    1.00000000     
    1929       1     2039    1.00000000     
    1930       1     2040    1.00000000     
    1931       1     2041    1.00000000     
    1932       1     2042    1.00000000     
    1933       1     2043    1.00000000     
    1934       1     2044    1.00000000     
    1935       1     2045    1.00000000     
    1936       1     2046    1.00000000     
    1937       1     2047    1.00000000     
    1938       1     2048    1.00000000     
    1939       1     2049    1.00000000     
    1940       1     2050    1.00000000     
    1941       1     2051    1.00000000     
    1942       1     2052    1.00000000     
    1943       1     2053    1.00000000     
    1944       1     2054    1.00000000     
    1945       1     2055    1.00000000     
    1946       1     2056    1.00000000     
    1947       1     2057    1.00000000     
    1948       1     2058    1.00000000     
    1949       1     2059    1.00000000     
    1950       1     2060    1.00000000     
    1951       1     2061    1.00000000     
    1952       1     2062    1.00000000     
    1953       1     2063    1.00000000     
    1954       1     2064    1.00000000     
    1955       1     2065    1.00000000     
    1956       1     2066    1.00000000     
    1957       1     2067    1.00000000     
    1958       1     2068    1.00000000     
    1959       1     2069    1.00000000     
    1960       1     2070    1.00000000     
    1961       1     2071    1.00000000     
    1962       1     2072    1.00000000     
    1963       1     2073    1.00000000     
    1964       1     2074    1.00000000     
    1965       1     2077    1.00000000     
    1966       1     2078    1.00000000     
    1967       1     2079    1.00000000     
    1968       1     2080    1.00000000     
    1969       1     2081    1.00000000     
    1970       1     2082    1.00000000     
    1971       1     2083    1.00000000     
    1972       1     2084    1.00000000     
    1973       1     2085    1.00000000     
    1974       1     2086    1.00000000     
    1975       1     2087    1.00000000     
    1976       1     2088    1.00000000     
    1977       1     2089    1.00000000     
    1978       1     2090    1.00000000     
    1979       1     2091    1.00000000     
    1980       1     2092    1.00000000     
    1981       1     2093    1.00000000     
    1982       1     2094    1.00000000     
    1983       1     2095    1.00000000     
    1984       1     2096    1.00000000     
    1985       1     2097    1.00000000     
    1986       1     2098    1.00000000     
    1987       1     2099    1.00000000     
    1988       1     2100    1.00000000     
    1989       1     2101    1.00000000     
    1990       1     2102    1.00000000     
    1991       1     2103    1.00000000     
    1992       1     2104    1.00000000     
    1993       1     2105    1.00000000     
    1994       1     2106    1.00000000     
    1995       1     2107    1.00000000     
    1996       1     2108    1.00000000     
    1997       1     2109    1.00000000     
    1998       1     2110    1.00000000     
    1999       1     2111    1.00000000     
    2000       1     2112    1.00000000     
    2001       1     2113    1.00000000     
    2002       1     2114    1.00000000     
    2003       1     2115    1.00000000     
    2004       1     2116    1.00000000     
    2005       1     2117    1.00000000     
    2006       1     2118    1.00000000     
    2007       1     2119    1.00000000     
    2008       1     2120    1.00000000     
    2009       1     2121    1.00000000     
    2010       1     2122    1.00000000     
    2011       1     2123    1.00000000     
    2012       1     2124    1.00000000     
    2013       1     2125    1.00000000     
    2014       1     2126    1.00000000     
    2015       1     2127    1.00000000     
    2016       1     2128    1.00000000     
    2017       1     2129    1.00000000     
    2018       1     2130    1.00000000     
    2019       1     2131    1.00000000     
    2020       1     2132    1.00000000     
    2021       1     2133    1.00000000     
    2022       1     2134    1.00000000     
    2023       1     2135    1.00000000     
    2024       1     2136    1.00000000     
    2025       1     2137    1.00000000     
    2026       1     2138    1.00000000     
    2027       1     2139    1.00000000     
    2028       1     2140    1.00000000     
    2029       1     2141    1.00000000     
    2030       1     2142    1.00000000     
    2031       1     2143    1.00000000     
    2032       1     2144    1.00000000     
    2033       1     2147    1.00000000     
    2034       1     2148    1.00000000     
    2035       1     2149    1.00000000     
    2036       1     2150    1.00000000     
    2037       1     2151    1.00000000     
    2038       1     2152    1.00000000     
    2039       1     2153    1.00000000     
    2040       1     2154    1.00000000     
    2041       1     2155    1.00000000     
    2042       1     2156    1.00000000     
    2043       1     2157    1.00000000     
    2044       1     2158    1.00000000     
    2045       1     2159    1.00000000     
    2046       1     2160    1.00000000     
    2047       1     2161    1.00000000     
    2048       1     2162    1.00000000     
    2049       1     2163    1.00000000     
    2050       1     2164    1.00000000     
    2051       1     2165    1.00000000     
    2052       1     2166    1.00000000     
    2053       1     2167    1.00000000     
    2054       1     2168    1.00000000     
    2055       1     2169    1.00000000     
    2056       1     2170    1.00000000     
    2057       1     2171    1.00000000     
    2058       1     2172    1.00000000     
    2059       1     2173    1.00000000     
    2060       1     2174    1.00000000     
    2061       1     2175    1.00000000     
    2062       1     2176    1.00000000     
    2063       1     2177    1.00000000     
    2064       1     2178    1.00000000     
    2065       1     2179    1.00000000     
    2066       1     2180    1.00000000     
    2067       1     2181    1.00000000     
    2068       1     2182    1.00000000     
    2069       1     2183    1.00000000     
    2070       1     2184    1.00000000     
    2071       1     2185    1.00000000     
    2072       1     2186    1.00000000     
    2073       1     2187    1.00000000     
    2074       1     2188    1.00000000     
    2075       1     2189    1.00000000     
    2076       1     2190    1.00000000     
    2077       1     2191    1.00000000     
    2078       1     2192    1.00000000     
    2079       1     2193    1.00000000     
    2080       1     2194    1.00000000     
    2081       1     2195    1.00000000     
    2082       1     2196    1.00000000     
    2083       1     2197    1.00000000     
    2084       1     2198    1.00000000     
    2085       1     2199    1.00000000     
    2086       1     2200    1.00000000     
    2087       1     2201    1.00000000     
    2088       1     2202    1.00000000     
    2089       1     2203    1.00000000     
    2090       1     2204    1.00000000     
    2091       1     2205    1.00000000     
    2092       1     2206    1.00000000     
    2093       1     2207    1.00000000     
    2094       1     2208    1.00000000     
    2095       1     2209    1.00000000     
    2096       1     2210    1.00000000     
    2097       1     2211    1.00000000     
    2098       1     2212    1.00000000     
    2099       1     2213    1.00000000     
    2100       1     2216    1.00000000     
    2101       1     2217    1.00000000     
    2102       1     2218    1.00000000     
    2103       1     2219    1.00000000     
    2104       1     2220    1.00000000     
    2105       1     2221    1.00000000     
    2106       1     2222    1.00000000     
    2107       1     2223    1.00000000     
    2108       1     2224    1.00000000     
    2109       1     2225    1.00000000     
    2110       1     2226    1.00000000     
    2111       1     2227    1.00000000     
    2112       1     2228    1.00000000     
    2113       1     2229    1.00000000     
    2114       1     2230    1.00000000     
    2115       1     2231    1.00000000     
    2116       1     2232    1.00000000     
    2117       1     2233    1.00000000     
    2118       1     2234    1.00000000     
    2119       1     2235    1.00000000     
    2120       1     2236    1.00000000     
    2121       1     2237    1.00000000     
    2122       1     2238    1.00000000     
    2123       1     2239    1.00000000     
    2124       1     2240    1.00000000     
    2125       1     2241    1.00000000     
    2126       1     2242    1.00000000     
    2127       1     2243    1.00000000     
    2128       1     2244    1.00000000     
    2129       1     2245    1.00000000     
    2130       1     2246    1.00000000     
    2131       1     2247    1.00000000     
    2132       1     2248    1.00000000     
    2133       1     2249    1.00000000     
    2134       1     2250    1.00000000     
    2135       1     2251    1.00000000     
    2136       1     2252    1.00000000     
    2137       1     2253    1.00000000     
    2138       1     2254    1.00000000     
    2139       1     2255    1.00000000     
    2140       1     2256    1.00000000     
    2141       1     2257    1.00000000     
    2142       1     2258    1.00000000     
    2143       1     2259    1.00000000     
    2144       1     2260    1.00000000     
    2145       1     2261    1.00000000     
    2146       1     2262    1.00000000     
    2147       1     2263    1.00000000     
    2148       1     2264    1.00000000     
    2149       1     2265    1.00000000     
    2150       1     2266    1.00000000     
    2151       1     2267    1.00000000     
    2152       1     2268    1.00000000     
    2153       1     2269    1.00000000     
    2154       1     2270    1.00000000     
    2155       1     2271    1.00000000     
    2156       1     2272    1.00000000     
    2157       1     2273    1.00000000     
    2158       1     2274    1.00000000     
    2159       1     2275    1.00000000     
    2160       1     2276    1.00000000     
    2161       1     2277    1.00000000     
    2162       1     2278    1.00000000     
    2163       1     2279    1.00000000     
    2164       1     2280    1.00000000     
    2165       1     2281    1.00000000     
    2166       1     2282    1.00000000     
    2167       1     2283    1.00000000     
    2168       1     2284    1.00000000     
    2169       1     2285    1.00000000     
    2170       1     2286    1.00000000     
    2171       1     2287    1.00000000     
    2172       1     2288    1.00000000     
    2173       1     2289    1.00000000     
    2174       1     2290    1.00000000     
    2175       1     2291    1.00000000     
    2176       1     2292    1.00000000     
    2177       1     2293    1.00000000     
    2178       1     2294    1.00000000     
    2179       1     2295    1.00000000     
    2180       1     2296    1.00000000     
    2181       1     2297    1.00000000     
    2182       1     2298    1.00000000     
    2183       1     2299    1.00000000     
    2184       1     2300    1.00000000     
    2185       1     2301    1.00000000     
    2186       1     2302    1.00000000     
    2187       1     2303    1.00000000     
    2188       1     2304    1.00000000     
    2189       1     2305    1.00000000     
    2190       1     2306    1.00000000     
    2191       1     2307    1.00000000     
    2192       1     2308    1.00000000     
    2193       1     2311    1.00000000     
    2194       1     2312    1.00000000     
    2195       1     2313    1.00000000     
    2196       1     2314    1.00000000     
    2197       1     2315    1.00000000     
    2198       1     2316    1.00000000     
    2199       1     2317    1.00000000     
    2200       1     2318    1.00000000     
    2201       1     2319    1.00000000     
    2202       1     2320    1.00000000     
    2203       1     2321    1.00000000     
    2204       1     2322    1.00000000     
    2205       1     2323    1.00000000     
    2206       1     2324    1.00000000     
    2207       1     2325    1.00000000     
    2208       1     2326    1.00000000     
    2209       1     2327    1.00000000     
    2210       1     2328    1.00000000     
    2211       1     2329    1.00000000     
    2212       1     2330    1.00000000     
    2213       1     2331    1.00000000     
    2214       1     2332    1.00000000     
    2215       1     2333    1.00000000     
    2216       1     2334    1.00000000     
    2217       1     2335    1.00000000     
    2218       1     2336    1.00000000     
    2219       1     2337    1.00000000     
    2220       1     2338    1.00000000     
    2221       1     2339    1.00000000     
    2222       1     2340    1.00000000     
    2223       1     2341    1.00000000     
    2224       1     2342    1.00000000     
    2225       1     2343    1.00000000     
    2226       1     2344    1.00000000     
    2227       1     2345    1.00000000     
    2228       1     2346    1.00000000     
    2229       1     2347    1.00000000     
    2230       1     2348    1.00000000     
    2231       1     2349    1.00000000     
    2232       1     2350    1.00000000     
    2233       1     2351    1.00000000     
    2234       1     2352    1.00000000     
    2235       1     2353    1.00000000     
    2236       1     2354    1.00000000     
    2237       1     2355    1.00000000     
    2238       1     2356    1.00000000     
    2239       1     2357    1.00000000     
    2240       1     2358    1.00000000     
    2241       1     2359    1.00000000     
    2242       1     2360    1.00000000     
    2243       1     2361    1.00000000     
    2244       1     2362    1.00000000     
    2245       1     2363    1.00000000     
    2246       1     2364    1.00000000     
    2247       1     2365    1.00000000     
    2248       1     2366    1.00000000     
    2249       1     2367    1.00000000     
    2250       1     2368    1.00000000     
    2251       1     2369    1.00000000     
    2252       1     2370    1.00000000     
    2253       1     2371    1.00000000     
    2254       1     2372    1.00000000     
    2255       1     2373    1.00000000     
    2256       1     2374    1.00000000     
    2257       1     2375    1.00000000     
    2258       1     2376    1.00000000     
    2259       1     2377    1.00000000     
    2260       1     2378    1.00000000     
    2261       1     2379    1.00000000     
    2262       1     2380    1.00000000     
    2263       1     2381    1.00000000     
    2264       1     2382    1.00000000     
    2265       1     2383    1.00000000     
    2266       1     2384    1.00000000     
    2267       1     2385    1.00000000     
    2268       1     2386    1.00000000     
    2269       1     2387    1.00000000     
    2270       1     2388    1.00000000     
    2271       1     2389    1.00000000     
    2272       1     2390    1.00000000     
    2273       1     2391    1.00000000     
    2274       1     2392    1.00000000     
    2275       1     2393    1.00000000     
    2276       1     2394    1.00000000     
    2277       1     2395    1.00000000     
    2278       1     2396    1.00000000     
    2279       1     2397    1.00000000     
    2280       1     2398    1.00000000     
    2281       1     2399    1.00000000     
    2282       1     2400    1.00000000     
    2283       1     2401    1.00000000     
    2284       1     2402    1.00000000     
    2285       1     2405    1.00000000     
    2286       1     2406    1.00000000     
    2287       1     2407    1.00000000     
    2288       1     2408    1.00000000     
    2289       1     2409    1.00000000     
    2290       1     2410    1.00000000     
    2291       1     2411    1.00000000     
    2292       1     2412    1.00000000     
    2293       1     2413    1.00000000     
    2294       1     2414    1.00000000     
    2295       1     2415    1.00000000     
    2296       1     2416    1.00000000     
    2297       1     2417    1.00000000     
    2298       1     2418    1.00000000     
    2299       1     2419    1.00000000     
    2300       1     2420    1.00000000     
    2301       1     2421    1.00000000     
    2302       1     2422    1.00000000     
    2303       1     2423    1.00000000     
    2304       1     2424    1.00000000     
    2305       1     2425    1.00000000     
    2306       1     2426    1.00000000     
    2307       1     2427    1.00000000     
    2308       1     2428    1.00000000     
    2309       1     2429    1.00000000     
    2310       1     2430    1.00000000     
    2311       1     2431    1.00000000     
    2312       1     2432    1.00000000     
    2313       1     2433    1.00000000     
    2314       1     2434    1.00000000     
    2315       1     2435    1.00000000     
    2316       1     2436    1.00000000     
    2317       1     2437    1.00000000     
    2318       1     2438    1.00000000     
    2319       1     2439    1.00000000     
    2320       1     2440    1.00000000     
    2321       1     2441    1.00000000     
    2322       1     2442    1.00000000     
    2323       1     2443    1.00000000     
    2324       1     2444    1.00000000     
    2325       1     2445    1.00000000     
    2326       1     2446    1.00000000     
    2327       1     2447    1.00000000     
    2328       1     2448    1.00000000     
    2329       1     2449    1.00000000     
    2330       1     2450    1.00000000     
    2331       1     2451    1.00000000     
    2332       1     2452    1.00000000     
    2333       1     2453    1.00000000     
    2334       1     2454    1.00000000     
    2335       1     2455    1.00000000     
    2336       1     2456    1.00000000     
    2337       1     2457    1.00000000     
    2338       1     2458    1.00000000     
    2339       1     2459    1.00000000     
    2340       1     2460    1.00000000     
    2341       1     2461    1.00000000     
    2342       1     2462    1.00000000     
    2343       1     2463    1.00000000     
    2344       1     2464    1.00000000     
    2345       1     2465    1.00000000     
    2346       1     2466    1.00000000     
    2347       1     2467    1.00000000     
    2348       1     2468    1.00000000     
    2349       1     2469    1.00000000     
    2350       1     2470    1.00000000     
    2351       1     2471    1.00000000     
    2352       1     2472    1.00000000     
    2353       1     2473    1.00000000     
    2354       1     2474    1.00000000     
    2355       1     2475    1.00000000     
    2356       1     2476    1.00000000     
    2357       1     2477    1.00000000     
    2358       1     2478    1.00000000     
    2359       1     2479    1.00000000     
    2360       1     2480    1.00000000     
    2361       1     2481    1.00000000     
    2362       1     2482    1.00000000     
    2363       1     2483    1.00000000     
    2364       1     2484    1.00000000     
    2365       1     2485    1.00000000     
    2366       1     2486    1.00000000     
    2367       1     2489    1.00000000     
    2368       1     2490    1.00000000     
    2369       1     2491    1.00000000     
    2370       1     2492    1.00000000     
    2371       1     2493    1.00000000     
    2372       1     2494    1.00000000     
    2373       1     2495    1.00000000     
    2374       1     2496    1.00000000     
    2375       1     2497    1.00000000     
    2376       1     2498    1.00000000     
    2377       1     2499    1.00000000     
    2378       1     2500    1.00000000     
    2379       1     2501    1.00000000     
    2380       1     2502    1.00000000     
    2381       1     2503    1.00000000     
    2382       1     2504    1.00000000     
    2383       1     2505    1.00000000     
    2384       1     2506    1.00000000     
    2385       1     2507    1.00000000     
    2386       1     2508    1.00000000     
    2387       1     2509    1.00000000     
    2388       1     2510    1.00000000     
    2389       1     2511    1.00000000     
    2390       1     2512    1.00000000     
    2391       1     2513    1.00000000     
    2392       1     2514    1.00000000     
    2393       1     2515    1.00000000     
    2394       1     2516    1.00000000     
    2395       1     2517    1.00000000     
    2396       1     2518    1.00000000     
    2397       1     2519    1.00000000     
    2398       1     2520    1.00000000     
    2399       1     2521    1.00000000     
    2400       1     2522    1.00000000     
    2401       1     2523    1.00000000     
    2402       1     2524    1.00000000     
    2403       1     2525    1.00000000     
    2404       1     2526    1.00000000     
    2405       1     2527    1.00000000     
    2406       1     2528    1.00000000     
    2407       1     2529    1.00000000     
    2408       1     2530    1.00000000     
    2409       1     2531    1.00000000     
    2410       1     2532    1.00000000     
    2411       1     2533    1.00000000     
    2412       1     2534    1.00000000     
    2413       1     2535    1.00000000     
    2414       1     2536    1.00000000     
    2415       1     2537    1.00000000     
    2416       1     2538    1.00000000     
    2417       1     2539    1.00000000     
    2418       1     2540    1.00000000     
    2419       1     2541    1.00000000     
    2420       1     2542    1.00000000     
    2421       1     2543    1.00000000     
    2422       1     2544    1.00000000     
    2423       1     2545    1.00000000     
    2424       1     2546    1.00000000     
    2425       1     2547    1.00000000     
    2426       1     2548    1.00000000     
    2427       1     2549    1.00000000     
    2428       1     2550    1.00000000     
    2429       1     2551    1.00000000     
    2430       1     2552    1.00000000     
    2431       1     2553    1.00000000     
    2432       1     2554    1.00000000     
    2433       1     2555    1.00000000     
    2434       1     2556    1.00000000     
    2435       1     2557    1.00000000     
    2436       1     2558    1.00000000     
    2437       1     2559    1.00000000     
    2438       1     2560    1.00000000     
    2439       1     2561    1.00000000     
    2440       1     2562    1.00000000     
    2441       1     2563    1.00000000     
    2442       1     2567    1.00000000     
    2443       1     2568    1.00000000     
    2444       1     2569    1.00000000     
    2445       1     2570    1.00000000     
    2446       1     2571    1.00000000     
    2447       1     2572    1.00000000     
    2448       1     2573    1.00000000     
    2449       1     2574    1.00000000     
    2450       1     2575    1.00000000     
    2451       1     2576    1.00000000     
    2452       1     2577    1.00000000     
    2453       1     2578    1.00000000     
    2454       1     2579    1.00000000     
    2455       1     2580    1.00000000     
    2456       1     2581    1.00000000     
    2457       1     2582    1.00000000     
    2458       1     2583    1.00000000     
    2459       1     2584    1.00000000     
    2460       1     2585    1.00000000     
    2461       1     2586    1.00000000     
    2462       1     2587    1.00000000     
    2463       1     2588    1.00000000     
    2464       1     2589    1.00000000     
    2465       1     2590    1.00000000     
    2466       1     2591    1.00000000     
    2467       1     2592    1.00000000     
    2468       1     2593    1.00000000     
    2469       1     2594    1.00000000     
    2470       1     2595    1.00000000     
    2471       1     2596    1.00000000     
    2472       1     2597    1.00000000     
    2473       1     2598    1.00000000     
    2474       1     2599    1.00000000     
    2475       1     2600    1.00000000     
    2476       1     2601    1.00000000     
    2477       1     2602    1.00000000     
    2478       1     2603    1.00000000     
    2479       1     2604    1.00000000     
    2480       1     2605    1.00000000     
    2481       1     2606    1.00000000     
    2482       1     2607    1.00000000     
    2483       1     2608    1.00000000     
    2484       1     2609    1.00000000     
    2485       1     2610    1.00000000     
    2486       1     2611    1.00000000     
    2487       1     2612    1.00000000     
    2488       1     2613    1.00000000     
    2489       1     2614    1.00000000     
    2490       1     2615    1.00000000     
    2491       1     2616    1.00000000     
    2492       1     2617    1.00000000     
    2493       1     2618    1.00000000     
    2494       1     2619    1.00000000     
    2495       1     2620    1.00000000     
    2496       1     2621    1.00000000     
    2497       1     2622    1.00000000     
    2498       1     2623    1.00000000     
    2499       1     2624    1.00000000     
    2500       1     2625    1.00000000     
    2501       1     2626    1.00000000     
    2502       1     2627    1.00000000     
    2503       1     2628    1.00000000     
    2504       1     2629    1.00000000     
    2505       1     2630    1.00000000     
    2506       1     2631    1.00000000     
    2507       1     2632    1.00000000     
    2508       1     2633    1.00000000     
    2509       1     2634    1.00000000     
    2510       1     2637    1.00000000     
    2511       1     2638    1.00000000     
    2512       1     2639    1.00000000     
    2513       1     2640    1.00000000     
    2514       1     2641    1.00000000     
    2515       1     2642    1.00000000     
    2516       1     2643    1.00000000     
    2517       1     2644    1.00000000     
    2518       1     2645    1.00000000     
    2519       1     2646    1.00000000     
    2520       1     2647    1.00000000     
    2521       1     2648    1.00000000     
    2522       1     2649    1.00000000     
    2523       1     2650    1.00000000     
    2524       1     2651    1.00000000     
    2525       1     2652    1.00000000     
    2526       1     2653    1.00000000     
    2527       1     2654    1.00000000     
    2528       1     2655    1.00000000     
    2529       1     2656    1.00000000     
    2530       1     2657    1.00000000     
    2531       1     2658    1.00000000     
    2532       1     2659    1.00000000     
    2533       1     2660    1.00000000     
    2534       1     2661    1.00000000     
    2535       1     2662    1.00000000     
    2536       1     2663    1.00000000     
    2537       1     2664    1.00000000     
    2538       1     2665    1.00000000     
    2539       1     2666    1.00000000     
    2540       1     2667    1.00000000     
    2541       1     2668    1.00000000     
    2542       1     2669    1.00000000     
    2543       1     2670    1.00000000     
    2544       1     2671    1.00000000     
    2545       1     2672    1.00000000     
    2546       1     2673    1.00000000     
    2547       1     2674    1.00000000     
    2548       1     2675    1.00000000     
    2549       1     2676    1.00000000     
    2550       1     2677    1.00000000     
    2551       1     2678    1.00000000     
    2552       1     2679    1.00000000     
    2553       1     2680    1.00000000     
    2554       1     2681    1.00000000     
    2555       1     2682    1.00000000     
    2556       1     2683    1.00000000     
    2557       1     2684    1.00000000     
    2558       1     2685    1.00000000     
    2559       1     2686    1.00000000     
    2560       1     2687    1.00000000     
    2561       1     2688    1.00000000     
    2562       1     2689    1.00000000     
    2563       1     2690    1.00000000     
    2564       1     2691    1.00000000     
    2565       1     2692    1.00000000     
    2566       1     2693    1.00000000     
    2567       1     2694    1.00000000     
    2568       1     2695    1.00000000     
    2569       1     2696    1.00000000     
    2570       1     2697    1.00000000     
    2571       1     2698    1.00000000     
    2572       1     2699    1.00000000     
    2573       1     2700    1.00000000     
    2574       1     2701    1.00000000     
    2575       1     2702    1.00000000     
    2576       1     2703    1.00000000     
    2577       1     2706    1.00000000     
    2578       1     2707    1.00000000     
    2579       1     2708    1.00000000     
    2580       1     2709    1.00000000     
    2581       1     2710    1.00000000     
    2582       1     2711    1.00000000     
    2583       1     2712    1.00000000     
    2584       1     2713    1.00000000     
    2585       1     2714    1.00000000     
    2586       1     2715    1.00000000     
    2587       1     2716    1.00000000     
    2588       1     2717    1.00000000     
    2589       1     2718    1.00000000     
    2590       1     2719    1.00000000     
    2591       1     2720    1.00000000     
    2592       1     2721    1.00000000     
    2593       1     2722    1.00000000     
    2594       1     2723    1.00000000     
    2595       1     2724    1.00000000     
    2596       1     2725    1.00000000     
    2597       1     2726    1.00000000     
    2598       1     2727    1.00000000     
    2599       1     2728    1.00000000     
    2600       1     2729    1.00000000     
    2601       1     2730    1.00000000     
    2602       1     2731    1.00000000     
    2603       1     2732    1.00000000     
    2604       1     2733    1.00000000     
    2605       1     2734    1.00000000     
    2606       1     2735    1.00000000     
    2607       1     2736    1.00000000     
    2608       1     2737    1.00000000     
    2609       1     2738    1.00000000     
    2610       1     2739    1.00000000     
    2611       1     2740    1.00000000     
    2612       1     2741    1.00000000     
    2613       1     2742    1.00000000     
    2614       1     2743    1.00000000     
    2615       1     2744    1.00000000     
    2616       1     2745    1.00000000     
    2617       1     2746    1.00000000     
    2618       1     2747    1.00000000     
    2619       1     2748    1.00000000     
    2620       1     2749    1.00000000     
    2621       1     2750    1.00000000     
    2622       1     2751    1.00000000     
    2623       1     2752    1.00000000     
    2624       1     2753    1.00000000     
    2625       1     2754    1.00000000     
    2626       1     2755    1.00000000     
    2627       1     2756    1.00000000     
    2628       1     2757    1.00000000     
    2629       1     2758    1.00000000     
    2630       1     2759    1.00000000     
    2631       1     2760    1.00000000     
    2632       1     2761    1.00000000     
    2633       1     2762    1.00000000     
    2634       1     2763    1.00000000     
    2635       1     2764    1.00000000     
    2636       1     2765    1.00000000     
    2637       1     2766    1.00000000     
    2638       1     2767    1.00000000     
    2639       1     2768    1.00000000     
    2640       1     2769    1.00000000     
    2641       1     2770    1.00000000     
    2642       1     2771    1.00000000     
    2643       1     2772    1.00000000     
    2644       1     2773    1.00000000     
    2645       1     2774    1.00000000     
    2646       1     2775    1.00000000     
    2647       1     2776    1.00000000     
    2648       1     2777    1.00000000     
    2649       1     2778    1.00000000     
    2650       1     2779    1.00000000     
    2651       1     2780    1.00000000     
    2652       1     2781    1.00000000     
    2653       1     2782    1.00000000     
    2654       1     2783    1.00000000     
    2655       1     2786    1.00000000     
    2656       1     2787    1.00000000     
    2657       1     2788    1.00000000     
    2658       1     2789    1.00000000     
    2659       1     2790    1.00000000     
    2660       1     2791    1.00000000     
    2661       1     2792    1.00000000     
    2662       1     2793    1.00000000     
    2663       1     2794    1.00000000     
    2664       1     2795    1.00000000     
    2665       1     2796    1.00000000     
    2666       1     2797    1.00000000     
    2667       1     2798    1.00000000     
    2668       1     2799    1.00000000     
    2669       1     2800    1.00000000     
    2670       1     2801    1.00000000     
    2671       1     2802    1.00000000     
    2672       1     2803    1.00000000     
    2673       1     2804    1.00000000     
    2674       1     2805    1.00000000     
    2675       1     2806    1.00000000     
    2676       1     2807    1.00000000     
    2677       1     2808    1.00000000     
    2678       1     2809    1.00000000     
    2679       1     2810    1.00000000     
    2680       1     2811    1.00000000     
    2681       1     2812    1.00000000     
    2682       1     2813    1.00000000     
    2683       1     2814    1.00000000     
    2684       1     2815    1.00000000     
    2685       1     2816    1.00000000     
    2686       1     2817    1.00000000     
    2687       1     2818    1.00000000     
    2688       1     2819    1.00000000     
    2689       1     2820    1.00000000     
    2690       1     2821    1.00000000     
    2691       1     2822    1.00000000     
    2692       1     2823    1.00000000     
    2693       1     2824    1.00000000     
    2694       1     2825    1.00000000     
    2695       1     2826    1.00000000     
    2696       1     2827    1.00000000     
    2697       1     2828    1.00000000     
    2698       1     2829    1.00000000     
    2699       1     2830    1.00000000     
    2700       1     2831    1.00000000     
    2701       1     2832    1.00000000     
    2702       1     2833    1.00000000     
    2703       1     2834    1.00000000     
    2704       1     2835    1.00000000     
    2705       1     2836    1.00000000     
    2706       1     2837    1.00000000     
    2707       1     2838    1.00000000     
    2708       1     2839    1.00000000     
    2709       1     2840    1.00000000     
    2710       1     2841    1.00000000     
    2711       1     2842    1.00000000     
    2712       1     2843    1.00000000     
    2713       1     2844    1.00000000     
    2714       1     2845    1.00000000     
    2715       1     2846    1.00000000     
    2716       1     2847    1.00000000     
    2717       1     2848    1.00000000     
    2718       1     2849    1.00000000     
    2719       1     2850    1.00000000     
    2720       1     2851    1.00000000     
    2721       1     2852    1.00000000     
    2722       1     2853    1.00000000     
    2723       1     2854    1.00000000     
    2724       1     2857    1.00000000     
    2725       1     2858    1.00000000     
    2726       1     2859    1.00000000     
    2727       1     2860    1.00000000     
    2728       1     2861    1.00000000     
    2729       1     2862    1.00000000     
    2730       1     2863    1.00000000     
    2731       1     2864    1.00000000     
    2732       1     2865    1.00000000     
    2733       1     2866    1.00000000     
    2734       1     2867    1.00000000     
    2735       1     2868    1.00000000     
    2736       1     2869    1.00000000     
    2737       1     2870    1.00000000     
    2738       1     2871    1.00000000     
    2739       1     2872    1.00000000     
    2740       1     2873    1.00000000     
    2741       1     2874    1.00000000     
    2742       1     2875    1.00000000     
    2743       1     2876    1.00000000     
    2744       1     2877    1.00000000     
    2745       1     2878    1.00000000     
    2746       1     2879    1.00000000     
    2747       1     2880    1.00000000     
    2748       1     2881    1.00000000     
    2749       1     2882    1.00000000     
    2750       1     2883    1.00000000     
    2751       1     2884    1.00000000     
    2752       1     2885    1.00000000     
    2753       1     2886    1.00000000     
    2754       1     2887    1.00000000     
    2755       1     2888    1.00000000     
    2756       1     2889    1.00000000     
    2757       1     2890    1.00000000     
    2758       1     2891    1.00000000     
    2759       1     2892    1.00000000     
    2760       1     2893    1.00000000     
    2761       1     2894    1.00000000     
    2762       1     2895    1.00000000     
    2763       1     2896    1.00000000     
    2764       1     2897    1.00000000     
    2765       1     2898    1.00000000     
    2766       1     2899    1.00000000     
    2767       1     2900    1.00000000     
    2768       1     2901    1.00000000     
    2769       1     2902    1.00000000     
    2770       1     2903    1.00000000     
    2771       1     2904    1.00000000     
    2772       1     2905    1.00000000     
    2773       1     2906    1.00000000     
    2774       1     2907    1.00000000     
    2775       1     2908    1.00000000     
    2776       1     2909    1.00000000     
    2777       1     2910    1.00000000     
    2778       1     2911    1.00000000     
    2779       1     2912    1.00000000     
    2780       1     2913    1.00000000     
    2781       1     2914    1.00000000     
    2782       1     2915    1.00000000     
    2783       1     2916    1.00000000     
    2784       1     2917    1.00000000     
    2785       1     2918    1.00000000     
    2786       1     2919    1.00000000     
    2787       1     2922    1.00000000     
    2788       1     2923    1.00000000     
    2789       1     2924    1.00000000     
    2790       1     2925    1.00000000     
    2791       1     2926    1.00000000     
    2792       1     2927    1.00000000     
    2793       1     2928    1.00000000     
    2794       1     2929    1.00000000     
    2795       1     2930    1.00000000     
    2796       1     2931    1.00000000     
    2797       1     2932    1.00000000     
    2798       1     2933    1.00000000     
    2799       1     2934    1.00000000     
    2800       1     2935    1.00000000     
    2801       1     2936    1.00000000     
    2802       1     2937    1.00000000     
    2803       1     2938    1.00000000     
    2804       1     2939    1.00000000     
    2805       1     2940    1.00000000     
    2806       1     2941    1.00000000     
    2807       1     2942    1.00000000     
    2808       1     2943    1.00000000     
    2809       1     2944    1.00000000     
    2810       1     2945    1.00000000     
    2811       1     2946    1.00000000     
    2812       1     2947    1.00000000     
    2813       1     2948    1.00000000     
    2814       1     2949    1.00000000     
    2815       1     2950    1.00000000     
    2816       1     2951    1.00000000     
    2817       1     2952    1.00000000     
    2818       1     2953    1.00000000     
    2819       1     2954    1.00000000     
    2820       1     2955    1.00000000     
    2821       1     2956    1.00000000     
    2822       1     2957    1.00000000     
    2823       1     2958    1.00000000     
    2824       1     2959    1.00000000     
    2825       1     2960    1.00000000     
    2826       1     2961    1.00000000     
    2827       1     2962    1.00000000     
    2828       1     2963    1.00000000     
    2829       1     2964    1.00000000     
    2830       1     2965    1.00000000     
    2831       1     2966    1.00000000     
    2832       1     2967    1.00000000     
    2833       1     2968    1.00000000     
    2834       1     2969    1.00000000     
    2835       1     2972    1.00000000     
    2836       1     2973    1.00000000     
    2837       1     2974    1.00000000     
    2838       1     2975    1.00000000     
    2839       1     2976    1.00000000     
    2840       1     2977    1.00000000     
    2841       1     2978    1.00000000     
    2842       1     2979    1.00000000     
    2843       1     2980    1.00000000     
    2844       1     2981    1.00000000     
    2845       1     2982    1.00000000     
    2846       1     2983    1.00000000     
    2847       1     2984    1.00000000     
    2848       1     2985    1.00000000     
    2849       1     2986    1.00000000     
    2850       1     2987    1.00000000     
    2851       1     2988    1.00000000     
    2852       1     2989    1.00000000     
    2853       1     2990    1.00000000     
    2854       1     2991    1.00000000     
    2855       1     2992    1.00000000     
    2856       1     2993    1.00000000     
    2857       1     2994    1.00000000     
    2858       1     2995    1.00000000     
    2859       1     2996    1.00000000     
    2860       1     2997    1.00000000     
    2861       1     2998    1.00000000     
    2862       1     2999    1.00000000     
    2863       1     3000    1.00000000     
    2864       1     3001    1.00000000     
    2865       1     3002    1.00000000     
    2866       1     3003    1.00000000     
    2867       1     3004    1.00000000     
    2868       1     3005    1.00000000     
    2869       1     3006    1.00000000     
    2870       1     3007    1.00000000     
    2871       1     3008    1.00000000     
    2872       1     3009    1.00000000     
    2873       1     3010    1.00000000     
    2874       1     3011    1.00000000     
    2875       1     3012    1.00000000     
    2876       1     3013    1.00000000     
    2877       1     3014    1.00000000     
    2878       1     3019    1.00000000     
    2879       1     3020    1.00000000     
    2880       1     3021    1.00000000     
    2881       1     3022    1.00000000     
    2882       1     3023    1.00000000     
    2883       1     3024    1.00000000     
    2884       1     3025    1.00000000     
    2885       1     3026    1.00000000     
    2886       1     3027    1.00000000     
    2887       1     3028    1.00000000     
    2888       1     3029    1.00000000     
    2889       1     3030    1.00000000     
    2890       1     3031    1.00000000     
    2891       1     3032    1.00000000     
    2892       1     3033    1.00000000     
    2893       1     3034    1.00000000     
    2894       1     3035    1.00000000     
    2895       1     3036    1.00000000     
    2896       1     3037    1.00000000     
    2897       1     3038    1.00000000     
    2898       1     3039    1.00000000     
    2899       1     3040    1.00000000     
    2900       1     3041    1.00000000     
    2901       1     3042    1.00000000     
    2902       1     3043    1.00000000     
    2903       1     3044    1.00000000     
    2904       1     3045    1.00000000     
    2905       1     3046    1.00000000     
    2906       1     3047    1.00000000     
    2907       1     3048    1.00000000     
    2908       1     3049    1.00000000     
    2909       1     3050    1.00000000     
    2910       1     3051    1.00000000     
    2911       1     3052    1.00000000     
    2912       1     3053    1.00000000     
    2913       1     3054    1.00000000     
    2914       1     3062    1.00000000     
    2915       1     3063    1.00000000     
    2916       1     3064    1.00000000     
    2917       1     3065    1.00000000     
    2918       1     3066    1.00000000     
    2919       1     3067    1.00000000     
    2920       1     3068    1.00000000     
    2921       1     3069    1.00000000     
    2922       1     3070    1.00000000     
    2923       1     3071    1.00000000     
    2924       1     3072    1.00000000     
    2925       1     3073    1.00000000     
    2926       1     3074    1.00000000     
    2927       1     3075    1.00000000     
    2928       1     3076    1.00000000     
    2929       1     3077    1.00000000     
    2930       1     3098    1.00000000     
    2931       1     3099    1.00000000     
    2932       1     3100    1.00000000     
    2933       1     3101    1.00000000     
    2934       1     3102    1.00000000     
    2935       1     3103    1.00000000     
    2936       1     3104    1.00000000     
    2937       1     3105    1.00000000     
    2938       1     3106    1.00000000     
    2939       1     3107    1.00000000     
    2940       1     3108    1.00000000     
    2941       1     3109    1.00000000     
    2942       1     3110    1.00000000     
    2943       1     3111    1.00000000     
    2944       1     3113    1.00000000     
    2945       1     3114    1.00000000     
    2946       1     3115    1.00000000     
    2947       1     3116    1.00000000     
    2948       1     3117    1.00000000     
    2949       1     3118    1.00000000     
    2950       1     3119    1.00000000     
    2951       1     3120    1.00000000     
    2952       1     3121    1.00000000     
    2953       1     3122    1.00000000     
    2954       1     3123    1.00000000     
    2955       1     3124    1.00000000     
 -------------------------------------------


 UBDSV1 SAVING           STO-SS ON UNIT   1019 AT TIME STEP      1, STRESS PERIOD      1
 UBDSV1 SAVING           STO-SY ON UNIT   1019 AT TIME STEP      1, STRESS PERIOD      1
 UBDSV1 SAVING     FLOW-JA-FACE ON UNIT   1019 AT TIME STEP      1, STRESS PERIOD      1
 UBDSV06 SAVING              GHB IN MODEL EXPERIMENTAL     PACKAGE EXPERIMENTAL    CONNECTED TO MODEL EXPERIMENTAL     PACKAGE GHB              ON UNIT   1019 AT TIME STEP      1, STRESS PERIOD      1

 GHB PACKAGE (GHB) FLOW RATES   PERIOD      1   STEP        1
 --------------------------------------------------------------------
   NUMBER   CELLID                    RATE       NAME                
 --------------------------------------------------------------------
     32     (1,312)              -239.41382      ORANGE              
     33     (1,313)              -264.10214      ORANGE              
     34     (1,314)              -287.47466      ORANGE              
     35     (1,315)              -309.86006      ORANGE              
     36     (1,316)              -330.81093      ORANGE              
     37     (1,317)              -350.76295      ORANGE              
     38     (1,318)              -369.90831      ORANGE              
     39     (1,319)              -388.39771      ORANGE              
     40     (1,320)              -406.34956      ORANGE              
     41     (1,321)              -423.70781      ORANGE              
     42     (1,322)              -440.66662      ORANGE              
     43     (1,323)              -456.99201      ORANGE              
     44     (1,324)              -472.96078      ORANGE              
     45     (1,325)              -488.59742      ORANGE              
     46     (1,326)              -503.71118      ORANGE              
     47     (1,327)              -518.10103      ORANGE              
     48     (1,328)              -531.68515      ORANGE              
     49     (1,329)              -544.49322      ORANGE              
     50     (1,330)              -555.83666      ORANGE              
     51     (1,331)              -565.14332      ORANGE              
     52     (1,332)              -571.45512      ORANGE              
     53     (1,333)              -573.41310      ORANGE              
     54     (1,334)              -567.56975      ORANGE              
     55     (1,335)              -528.72540      ORANGE              
     56     (1,336)              -437.16473      ORANGE              
     57     (1,337)              -393.29585      ORANGE              
     58     (1,338)              -379.27674      ORANGE              
     59     (1,339)              -376.05047      ORANGE              
     68     (1,51)               -204.85174      GOLD                
     69     (1,84)               -225.85279      GOLD                
     70     (1,116)              -244.27391      GOLD                
     71     (1,150)              -263.28330      GOLD                
     72     (1,186)              -285.41263      GOLD                
     73     (1,224)              -312.80867      GOLD                
     74     (1,264)              -349.06254      GOLD                
     75     (1,1)                -320.69201      YELLOWGREEN         
     76     (1,2)                -295.43129      YELLOWGREEN         
     77     (1,3)                -250.65121      YELLOWGREEN         
     78     (1,4)                -181.79313      YELLOWGREEN         
     79     (1,5)                -100.13013      YELLOWGREEN         
     80     (1,6)                -74.375100      YELLOWGREEN         
     81     (1,9)                -69.283720      YELLOWGREEN         
     82     (1,10)               -84.825902      YELLOWGREEN         
     83     (1,11)               -102.57763      YELLOWGREEN         
     84     (1,12)               -120.08747      YELLOWGREEN         
     85     (1,13)               -137.08647      YELLOWGREEN         
     86     (1,14)               -153.50720      YELLOWGREEN         
     87     (1,15)               -169.38066      YELLOWGREEN         
     88     (1,16)               -185.06704      YELLOWGREEN         
     89     (1,17)               -200.80935      YELLOWGREEN         
     90     (1,18)               -216.24741      YELLOWGREEN         
     91     (1,19)               -229.80232      YELLOWGREEN         
     92     (1,20)               -240.64400      YELLOWGREEN         
     93     (1,21)               -249.54154      YELLOWGREEN         
     94     (1,22)               -256.33033      YELLOWGREEN         
     95     (1,23)               -260.31548      YELLOWGREEN         
     96     (1,52)               -500.57888      LIMEGREEN           
     97     (1,85)               -534.53815      LIMEGREEN           
     98     (1,117)              -565.29857      LIMEGREEN           
     99     (1,151)              -589.87104      LIMEGREEN           
    100     (1,187)              -608.35823      LIMEGREEN           
    101     (1,265)              -624.31680      AQUA                
    102     (1,348)              -627.45134      AQUA                
    103     (1,429)              -633.26242      AQUA                
    104     (1,505)              -640.88195      AQUA                
    105     (1,585)              -649.26485      AQUA                
    106     (1,666)              -657.81875      AQUA                
    107     (1,748)              -666.20976      AQUA                
    108     (1,831)              -674.36267      AQUA                
    109     (1,914)              -682.08236      AQUA                
    110     (1,997)              -689.05489      AQUA                
    111     (1,1077)             -695.19698      AQUA                
    112     (1,1157)             -700.65080      AQUA                
    113     (1,1240)             -705.22950      AQUA                
    114     (1,1399)             -771.39635      DARKTURQUOISE       
    115     (1,1486)             -784.88078      DARKTURQUOISE       
    116     (1,1581)             -799.65020      DARKTURQUOISE       
    117     (1,1693)             -813.08085      DARKTURQUOISE       
    118     (1,1777)             -825.61579      DARKTURQUOISE       
    119     (1,1854)             -838.54187      DARKTURQUOISE       
    120     (1,1930)             -850.16068      DARKTURQUOISE       
    121     (1,2005)             -859.55863      DARKTURQUOISE       
    122     (1,2076)             -867.28595      DARKTURQUOISE       
    123     (1,2146)             -874.32739      DARKTURQUOISE       
    124     (1,2215)             -884.94167      DARKTURQUOISE       
    125     (1,2310)             -902.29844      DARKTURQUOISE       
    126     (1,2404)             -913.29025      DARKTURQUOISE       
    127     (1,2488)             -921.61186      DARKTURQUOISE       
    128     (1,2566)             -928.12465      DARKTURQUOISE       
    129     (1,2636)             -932.86159      DARKTURQUOISE       
    130     (1,2705)             -934.70642      DARKTURQUOISE       
    131     (1,2785)             -933.60512      DARKTURQUOISE       
    132     (1,2856)             -935.32883      DARKTURQUOISE       
    133     (1,2921)             -940.24956      DARKTURQUOISE       
    134     (1,2971)             -943.53182      DARKTURQUOISE       
    135     (1,3018)             -942.83961      DARKTURQUOISE       
    136     (1,3061)             -919.67823      DARKTURQUOISE       
    137     (1,3097)             -826.34339      DARKTURQUOISE       
    138     (1,3126)             -604.90335      ROYALBLUE           
    139     (1,3127)             -537.87430      ROYALBLUE           
 --------------------------------------------------------------------



 UBDSV06 SAVING              RCH IN MODEL EXPERIMENTAL     PACKAGE EXPERIMENTAL    CONNECTED TO MODEL EXPERIMENTAL     PACKAGE RCH              ON UNIT   1019 AT TIME STEP      1, STRESS PERIOD      1

 RCH PACKAGE (RCH) FLOW RATES   PERIOD      1   STEP        1
 -----------------------------------------------
   NUMBER   CELLID                    RATE      
 -----------------------------------------------
     1      (1,7)                 24.996338     
     2      (1,8)                 24.995850     
     3      (1,24)                99.984375     
     4      (1,25)                99.984375     
     5      (1,26)                99.985107     
     6      (1,27)                99.983154     
     7      (1,28)                100.00293     
     8      (1,29)                24.996338     
     9      (1,30)                24.996094     
     10     (1,31)                24.996826     
     11     (1,32)                24.996582     
     12     (1,33)                24.994873     
     13     (1,34)                24.996338     
     14     (1,35)                24.995850     
     15     (1,36)                24.999512     
     16     (1,37)                99.953125     
     17     (1,38)                100.03589     
     18     (1,39)                100.05566     
     19     (1,40)                99.984619     
     20     (1,41)                99.984375     
     21     (1,42)                99.984619     
     22     (1,43)                99.984619     
     23     (1,44)                99.984375     
     24     (1,45)                99.983643     
     25     (1,46)                99.983398     
     26     (1,47)                100.05493     
     27     (1,48)                100.05420     
     28     (1,49)                99.985107     
     29     (1,50)                99.989746     
     30     (1,53)                100.05542     
     31     (1,54)                99.984131     
     32     (1,55)                99.984619     
     33     (1,56)                99.983398     
     34     (1,57)                99.983887     
     35     (1,58)                100.02344     
     36     (1,59)                24.998779     
     37     (1,60)                24.995850     
     38     (1,61)                24.996826     
     39     (1,62)                24.996826     
     40     (1,63)                24.996338     
     41     (1,64)                24.996338     
     42     (1,65)                24.995361     
     43     (1,66)                24.995117     
     44     (1,67)                24.995605     
     45     (1,68)                24.994629     
     46     (1,69)                24.995850     
     47     (1,70)                24.996826     
     48     (1,71)                100.01929     
     49     (1,72)                100.05444     
     50     (1,73)                99.984375     
     51     (1,74)                99.983154     
     52     (1,75)                99.984375     
     53     (1,76)                99.984375     
     54     (1,77)                99.984863     
     55     (1,78)                99.984619     
     56     (1,79)                99.983643     
     57     (1,80)                100.05493     
     58     (1,81)                100.06152     
     59     (1,82)                99.989502     
     60     (1,83)                99.985352     
     61     (1,86)                99.983887     
     62     (1,87)                100.05396     
     63     (1,88)                100.05469     
     64     (1,89)                99.983643     
     65     (1,90)                99.983887     
     66     (1,91)                99.991455     
     67     (1,92)                99.991699     
     68     (1,93)                100.00171     
     69     (1,94)                100.01807     
     70     (1,95)                24.996826     
     71     (1,96)                24.996826     
     72     (1,97)                24.995850     
     73     (1,98)                24.995605     
     74     (1,99)                24.995605     
     75     (1,100)               24.996094     
     76     (1,101)               24.996582     
     77     (1,102)               24.995117     
     78     (1,103)               100.02026     
     79     (1,104)               100.05493     
     80     (1,105)               99.983643     
     81     (1,106)               99.984375     
     82     (1,107)               99.984619     
     83     (1,108)               99.984863     
     84     (1,109)               99.985107     
     85     (1,110)               99.984375     
     86     (1,111)               99.991211     
     87     (1,112)               100.06152     
     88     (1,113)               100.05396     
     89     (1,114)               99.983398     
     90     (1,115)               99.983887     
     91     (1,118)               99.983643     
     92     (1,119)               99.983643     
     93     (1,120)               99.984131     
     94     (1,121)               100.05371     
     95     (1,122)               100.05420     
     96     (1,123)               99.991699     
     97     (1,124)               99.990234     
     98     (1,125)               99.983887     
     99     (1,126)               99.984131     
    100     (1,127)               99.984131     
    101     (1,128)               100.01978     
    102     (1,129)               24.996826     
    103     (1,130)               24.995361     
    104     (1,131)               24.997070     
    105     (1,132)               24.995850     
    106     (1,133)               24.996582     
    107     (1,134)               25.000000     
    108     (1,135)               24.999756     
    109     (1,136)               24.996338     
    110     (1,137)               100.01904     
    111     (1,138)               100.05566     
    112     (1,139)               99.983887     
    113     (1,140)               99.984619     
    114     (1,141)               99.984375     
    115     (1,142)               99.984375     
    116     (1,143)               99.990723     
    117     (1,144)               99.992432     
    118     (1,145)               99.983643     
    119     (1,146)               100.05444     
    120     (1,147)               100.05420     
    121     (1,148)               99.985107     
    122     (1,149)               99.984375     
    123     (1,152)               99.984863     
    124     (1,153)               99.984619     
    125     (1,154)               99.982910     
    126     (1,155)               99.985107     
    127     (1,156)               99.982910     
    128     (1,157)               100.06226     
    129     (1,158)               100.06177     
    130     (1,159)               99.984131     
    131     (1,160)               99.983643     
    132     (1,161)               99.984863     
    133     (1,162)               99.984375     
    134     (1,163)               99.984619     
    135     (1,164)               100.02295     
    136     (1,165)               24.997559     
    137     (1,166)               24.997314     
    138     (1,167)               24.996094     
    139     (1,168)               24.997070     
    140     (1,169)               24.996582     
    141     (1,170)               24.995605     
    142     (1,171)               24.995605     
    143     (1,172)               24.995850     
    144     (1,173)               100.02075     
    145     (1,174)               100.05347     
    146     (1,175)               99.984619     
    147     (1,176)               99.984131     
    148     (1,177)               99.990723     
    149     (1,178)               99.991943     
    150     (1,179)               99.985107     
    151     (1,180)               99.984131     
    152     (1,181)               99.983643     
    153     (1,182)               100.05566     
    154     (1,183)               100.05493     
    155     (1,184)               99.983643     
    156     (1,185)               99.983643     
    157     (1,188)               99.984619     
    158     (1,189)               99.984619     
    159     (1,190)               99.985107     
    160     (1,191)               99.984375     
    161     (1,192)               99.983154     
    162     (1,193)               99.991211     
    163     (1,194)               99.991211     
    164     (1,195)               100.05469     
    165     (1,196)               100.05469     
    166     (1,197)               99.983643     
    167     (1,198)               99.982910     
    168     (1,199)               99.984131     
    169     (1,200)               99.985107     
    170     (1,201)               99.984619     
    171     (1,202)               100.01880     
    172     (1,203)               24.995850     
    173     (1,204)               24.995361     
    174     (1,205)               24.996094     
    175     (1,206)               24.995361     
    176     (1,207)               24.995361     
    177     (1,208)               24.996582     
    178     (1,209)               24.996582     
    179     (1,210)               24.996582     
    180     (1,211)               100.01831     
    181     (1,212)               100.05469     
    182     (1,213)               99.990723     
    183     (1,214)               99.990234     
    184     (1,215)               99.985107     
    185     (1,216)               99.984131     
    186     (1,217)               99.984375     
    187     (1,218)               99.984619     
    188     (1,219)               99.984863     
    189     (1,220)               100.05493     
    190     (1,221)               100.05371     
    191     (1,222)               99.984863     
    192     (1,223)               99.984375     
    193     (1,225)               99.983398     
    194     (1,226)               100.05420     
    195     (1,227)               100.05493     
    196     (1,228)               99.983887     
    197     (1,229)               99.984619     
    198     (1,230)               99.984863     
    199     (1,231)               99.990723     
    200     (1,232)               99.991211     
    201     (1,233)               99.984619     
    202     (1,234)               99.984131     
    203     (1,235)               100.05469     
    204     (1,236)               100.05444     
    205     (1,237)               99.984863     
    206     (1,238)               99.983643     
    207     (1,239)               99.983887     
    208     (1,240)               99.984375     
    209     (1,241)               99.983887     
    210     (1,242)               100.02075     
    211     (1,243)               24.997070     
    212     (1,244)               24.995850     
    213     (1,245)               24.995850     
    214     (1,246)               24.996826     
    215     (1,247)               24.996094     
    216     (1,248)               24.996094     
    217     (1,249)               24.995850     
    218     (1,250)               24.996826     
    219     (1,251)               100.02490     
    220     (1,252)               100.05981     
    221     (1,253)               99.999023     
    222     (1,254)               99.984131     
    223     (1,255)               99.983887     
    224     (1,256)               99.984375     
    225     (1,257)               99.984375     
    226     (1,258)               99.984863     
    227     (1,259)               99.984131     
    228     (1,260)               100.05444     
    229     (1,261)               100.05469     
    230     (1,262)               99.983643     
    231     (1,263)               99.983154     
    232     (1,266)               99.983887     
    233     (1,267)               99.984375     
    234     (1,268)               100.05493     
    235     (1,269)               100.05493     
    236     (1,270)               99.985107     
    237     (1,271)               99.992188     
    238     (1,272)               99.990967     
    239     (1,273)               99.983398     
    240     (1,274)               99.983398     
    241     (1,275)               99.983643     
    242     (1,276)               99.983398     
    243     (1,277)               100.05493     
    244     (1,278)               100.05444     
    245     (1,279)               99.983643     
    246     (1,280)               99.983398     
    247     (1,281)               99.984131     
    248     (1,282)               99.984131     
    249     (1,283)               99.983154     
    250     (1,284)               100.01904     
    251     (1,285)               24.995361     
    252     (1,286)               24.995850     
    253     (1,287)               24.996826     
    254     (1,288)               24.998535     
    255     (1,289)               25.000732     
    256     (1,290)               24.996338     
    257     (1,291)               24.995361     
    258     (1,292)               24.995850     
    259     (1,293)               24.996094     
    260     (1,294)               25.031738     
    261     (1,295)               24.996338     
    262     (1,296)               24.996094     
    263     (1,297)               24.995605     
    264     (1,298)               24.995850     
    265     (1,299)               25.031250     
    266     (1,300)               24.995361     
    267     (1,301)               100.01880     
    268     (1,302)               100.00024     
    269     (1,303)               99.984131     
    270     (1,304)               99.983398     
    271     (1,305)               99.983643     
    272     (1,306)               99.984863     
    273     (1,307)               99.984375     
    274     (1,308)               100.05371     
    275     (1,309)               100.05542     
    276     (1,310)               99.983887     
    277     (1,311)               99.984375     
    278     (1,349)               99.984131     
    279     (1,350)               99.984131     
    280     (1,351)               99.984863     
    281     (1,352)               100.05444     
    282     (1,353)               100.06177     
    283     (1,354)               99.991455     
    284     (1,355)               99.984131     
    285     (1,356)               99.984619     
    286     (1,357)               99.984131     
    287     (1,358)               99.984131     
    288     (1,359)               99.984375     
    289     (1,360)               99.983154     
    290     (1,361)               100.05566     
    291     (1,362)               100.05371     
    292     (1,363)               99.984863     
    293     (1,364)               99.984131     
    294     (1,365)               99.984863     
    295     (1,366)               99.983643     
    296     (1,367)               99.990234     
    297     (1,368)               100.00806     
    298     (1,369)               100.00269     
    299     (1,370)               100.02026     
    300     (1,371)               24.997070     
    301     (1,372)               25.031494     
    302     (1,373)               24.995117     
    303     (1,374)               24.995361     
    304     (1,375)               24.995361     
    305     (1,376)               24.993896     
    306     (1,377)               25.031982     
    307     (1,378)               24.996582     
    308     (1,379)               24.995361     
    309     (1,380)               24.996582     
    310     (1,381)               24.994141     
    311     (1,382)               24.996338     
    312     (1,383)               100.00391     
    313     (1,384)               99.984375     
    314     (1,385)               99.984131     
    315     (1,386)               99.982910     
    316     (1,387)               99.984619     
    317     (1,388)               99.984131     
    318     (1,389)               100.05420     
    319     (1,390)               100.05420     
    320     (1,391)               99.992432     
    321     (1,392)               99.989258     
    322     (1,393)               99.984131     
    323     (1,394)               99.983887     
    324     (1,395)               99.984131     
    325     (1,396)               99.983887     
    326     (1,397)               99.983887     
    327     (1,398)               100.05420     
    328     (1,399)               100.05420     
    329     (1,400)               99.983398     
    330     (1,401)               99.984131     
    331     (1,402)               99.983643     
    332     (1,403)               99.984131     
    333     (1,404)               99.984375     
    334     (1,405)               99.984375     
    335     (1,406)               99.990723     
    336     (1,407)               99.991699     
    337     (1,408)               100.05396     
    338     (1,409)               100.05420     
    339     (1,410)               99.983887     
    340     (1,411)               99.984619     
    341     (1,412)               99.983154     
    342     (1,413)               99.984131     
    343     (1,414)               99.983887     
    344     (1,415)               99.983398     
    357     (1,430)               99.984131     
    358     (1,431)               99.984131     
    359     (1,432)               99.983398     
    360     (1,433)               99.990967     
    361     (1,434)               100.06128     
    362     (1,435)               100.05420     
    363     (1,436)               99.983887     
    364     (1,437)               99.983643     
    365     (1,438)               99.983398     
    366     (1,439)               99.983154     
    367     (1,440)               99.984375     
    368     (1,441)               99.985596     
    369     (1,442)               99.983643     
    370     (1,443)               100.05493     
    371     (1,444)               100.05469     
    372     (1,445)               99.983643     
    373     (1,446)               99.984619     
    374     (1,447)               99.990967     
    375     (1,448)               99.990967     
    376     (1,449)               99.983887     
    377     (1,450)               99.984375     
    378     (1,451)               99.983643     
    379     (1,452)               100.00439     
    380     (1,453)               100.05493     
    381     (1,454)               24.996582     
    382     (1,455)               24.995605     
    383     (1,456)               25.031250     
    384     (1,457)               24.996826     
    385     (1,458)               100.02344     
    386     (1,459)               99.984131     
    387     (1,460)               99.984375     
    388     (1,461)               99.984131     
    389     (1,462)               99.983154     
    390     (1,463)               99.982422     
    391     (1,464)               99.984375     
    392     (1,465)               100.06104     
    393     (1,466)               100.06274     
    394     (1,467)               99.984863     
    395     (1,468)               99.983154     
    396     (1,469)               99.983154     
    397     (1,470)               99.984131     
    398     (1,471)               99.983398     
    399     (1,472)               99.983154     
    400     (1,473)               99.983887     
    401     (1,474)               100.05420     
    402     (1,475)               100.05469     
    403     (1,476)               99.983398     
    404     (1,477)               99.984375     
    405     (1,478)               99.983643     
    406     (1,479)               99.983887     
    407     (1,480)               99.990967     
    408     (1,481)               99.990723     
    409     (1,482)               99.984619     
    410     (1,483)               99.984375     
    411     (1,484)               100.05493     
    412     (1,485)               100.05518     
    413     (1,486)               99.984619     
    414     (1,487)               99.984863     
    415     (1,488)               99.983398     
    416     (1,489)               99.983887     
    417     (1,490)               99.984131     
    431     (1,506)               99.983887     
    432     (1,507)               99.984131     
    433     (1,508)               99.991211     
    434     (1,509)               99.991211     
    435     (1,510)               99.983643     
    436     (1,511)               100.05493     
    437     (1,512)               100.05493     
    438     (1,513)               99.984619     
    439     (1,514)               99.984131     
    440     (1,515)               99.983643     
    441     (1,516)               99.984863     
    442     (1,517)               99.985596     
    443     (1,518)               99.983887     
    444     (1,519)               99.984131     
    445     (1,520)               100.05469     
    446     (1,521)               100.05469     
    447     (1,522)               99.991211     
    448     (1,523)               99.990723     
    449     (1,524)               99.985596     
    450     (1,525)               99.984375     
    451     (1,526)               99.984375     
    452     (1,527)               99.983887     
    453     (1,528)               99.983887     
    454     (1,529)               99.999756     
    455     (1,530)               24.995850     
    456     (1,531)               25.035156     
    457     (1,532)               24.999512     
    458     (1,533)               24.995605     
    459     (1,534)               24.995605     
    460     (1,535)               24.996338     
    461     (1,536)               25.030762     
    462     (1,537)               24.996094     
    463     (1,538)               100.01953     
    464     (1,539)               99.984375     
    465     (1,540)               99.984131     
    466     (1,541)               99.984131     
    467     (1,542)               99.983887     
    468     (1,543)               99.991455     
    469     (1,544)               99.990723     
    470     (1,545)               100.05396     
    471     (1,546)               100.05615     
    472     (1,547)               99.983887     
    473     (1,548)               99.984375     
    474     (1,549)               99.983398     
    475     (1,550)               99.984863     
    476     (1,551)               99.984619     
    477     (1,552)               99.984375     
    478     (1,553)               99.984619     
    479     (1,554)               100.05444     
    480     (1,555)               100.05542     
    481     (1,556)               99.984131     
    482     (1,557)               99.982910     
    483     (1,558)               99.990967     
    484     (1,559)               99.991943     
    485     (1,560)               99.984131     
    486     (1,561)               99.983887     
    487     (1,562)               99.983887     
    488     (1,563)               99.984131     
    489     (1,564)               100.05469     
    490     (1,565)               100.05396     
    491     (1,566)               99.983398     
    492     (1,567)               99.984131     
    493     (1,568)               99.984131     
    494     (1,569)               99.984131     
    509     (1,586)               99.984375     
    510     (1,587)               99.990723     
    511     (1,588)               99.990967     
    512     (1,589)               99.984619     
    513     (1,590)               99.984131     
    514     (1,591)               99.984375     
    515     (1,592)               100.05420     
    516     (1,593)               100.05542     
    517     (1,594)               99.983398     
    518     (1,595)               99.984619     
    519     (1,596)               99.983154     
    520     (1,597)               99.983887     
    521     (1,598)               99.983887     
    522     (1,599)               99.983643     
    523     (1,600)               99.984375     
    524     (1,601)               100.06152     
    525     (1,602)               100.06128     
    526     (1,603)               99.983154     
    527     (1,604)               99.985107     
    528     (1,605)               99.984863     
    529     (1,606)               99.985352     
    530     (1,607)               99.984375     
    531     (1,608)               99.983887     
    532     (1,609)               99.985107     
    533     (1,610)               100.02100     
    534     (1,611)               24.995361     
    535     (1,612)               25.031250     
    536     (1,613)               24.996094     
    537     (1,614)               24.995605     
    538     (1,615)               24.996338     
    539     (1,616)               24.995850     
    540     (1,617)               25.031738     
    541     (1,618)               24.996582     
    542     (1,619)               100.02148     
    543     (1,620)               99.983643     
    544     (1,621)               99.984619     
    545     (1,622)               99.990234     
    546     (1,623)               99.990723     
    547     (1,624)               99.983398     
    548     (1,625)               99.983643     
    549     (1,626)               100.05396     
    550     (1,627)               100.05469     
    551     (1,628)               99.985352     
    552     (1,629)               99.983643     
    553     (1,630)               99.984375     
    554     (1,631)               99.983398     
    555     (1,632)               99.983398     
    556     (1,633)               99.984131     
    557     (1,634)               99.983887     
    558     (1,635)               100.05444     
    559     (1,636)               100.05420     
    560     (1,637)               99.989746     
    561     (1,638)               99.990234     
    562     (1,639)               99.983643     
    563     (1,640)               99.983643     
    564     (1,641)               99.984619     
    565     (1,642)               99.984863     
    566     (1,643)               99.983887     
    567     (1,644)               99.983887     
    568     (1,645)               100.05396     
    569     (1,646)               100.05420     
    570     (1,647)               99.984375     
    571     (1,648)               99.983887     
    572     (1,649)               99.984131     
    573     (1,650)               99.984863     
    582     (1,659)               99.983887     
    588     (1,667)               99.992188     
    589     (1,668)               99.990967     
    590     (1,669)               99.984375     
    591     (1,670)               99.984131     
    592     (1,671)               99.983643     
    593     (1,672)               99.984863     
    594     (1,673)               99.984131     
    595     (1,674)               100.05566     
    596     (1,675)               100.05420     
    597     (1,676)               99.984619     
    598     (1,677)               99.983887     
    599     (1,678)               99.984619     
    600     (1,679)               99.983154     
    601     (1,680)               99.984131     
    602     (1,681)               99.992676     
    603     (1,682)               99.991211     
    604     (1,683)               100.05371     
    605     (1,684)               100.05420     
    606     (1,685)               99.984375     
    607     (1,686)               99.984375     
    608     (1,687)               99.983643     
    609     (1,688)               99.984863     
    610     (1,689)               99.984619     
    611     (1,690)               99.983643     
    612     (1,691)               99.983398     
    613     (1,692)               100.01782     
    614     (1,693)               24.995605     
    615     (1,694)               25.031738     
    616     (1,695)               24.996582     
    617     (1,696)               24.995850     
    618     (1,697)               24.996826     
    619     (1,698)               24.995361     
    620     (1,699)               25.031982     
    621     (1,700)               24.996826     
    622     (1,701)               100.02124     
    623     (1,702)               99.991211     
    624     (1,703)               99.991211     
    625     (1,704)               99.984131     
    626     (1,705)               99.983154     
    627     (1,706)               99.983398     
    628     (1,707)               99.984375     
    629     (1,708)               100.05420     
    630     (1,709)               100.05591     
    631     (1,710)               99.983887     
    632     (1,711)               99.984375     
    633     (1,712)               99.983887     
    634     (1,713)               99.983643     
    635     (1,714)               99.984131     
    636     (1,715)               99.983154     
    637     (1,716)               99.985107     
    638     (1,717)               100.06104     
    639     (1,718)               100.06104     
    640     (1,719)               99.984131     
    641     (1,720)               99.983887     
    642     (1,721)               99.984131     
    643     (1,722)               99.983887     
    644     (1,723)               99.983643     
    645     (1,724)               99.983154     
    646     (1,725)               99.983154     
    647     (1,726)               99.985107     
    648     (1,727)               100.05566     
    649     (1,728)               100.05493     
    650     (1,729)               99.983643     
    651     (1,730)               99.984619     
    652     (1,731)               99.991211     
    655     (1,734)               99.984131     
    659     (1,738)               99.984131     
    661     (1,740)               99.984131     
    662     (1,741)               99.982910     
    668     (1,749)               100.06226     
    669     (1,750)               99.983154     
    670     (1,751)               99.983887     
    671     (1,752)               99.983398     
    672     (1,753)               99.984375     
    673     (1,754)               99.984375     
    674     (1,755)               99.983643     
    675     (1,756)               99.984375     
    676     (1,757)               100.05469     
    677     (1,758)               100.05444     
    678     (1,759)               99.984619     
    679     (1,760)               99.984375     
    680     (1,761)               99.983887     
    681     (1,762)               99.990723     
    682     (1,763)               99.991211     
    683     (1,764)               99.983398     
    684     (1,765)               99.983643     
    685     (1,766)               100.05420     
    686     (1,767)               100.05444     
    687     (1,768)               99.983887     
    688     (1,769)               99.983887     
    689     (1,770)               99.983398     
    690     (1,771)               99.983887     
    691     (1,772)               99.983398     
    692     (1,773)               99.984619     
    693     (1,774)               99.983398     
    694     (1,775)               100.01904     
    695     (1,776)               24.996094     
    696     (1,777)               25.031982     
    697     (1,778)               24.996094     
    698     (1,779)               24.997070     
    699     (1,780)               24.995850     
    700     (1,781)               24.995605     
    701     (1,782)               25.030518     
    702     (1,783)               24.999268     
    703     (1,784)               100.02612     
    704     (1,785)               99.984375     
    705     (1,786)               99.984375     
    706     (1,787)               99.984131     
    707     (1,788)               99.983887     
    708     (1,789)               99.984375     
    709     (1,790)               99.984619     
    710     (1,791)               100.05469     
    711     (1,792)               100.05420     
    712     (1,793)               99.984131     
    713     (1,794)               99.983887     
    714     (1,795)               99.983643     
    715     (1,796)               99.984863     
    716     (1,797)               99.983398     
    717     (1,798)               99.991211     
    718     (1,799)               99.990479     
    719     (1,800)               100.05493     
    720     (1,801)               100.05420     
    721     (1,802)               99.984375     
    722     (1,803)               99.984131     
    723     (1,804)               99.983643     
    724     (1,805)               99.983643     
    725     (1,806)               99.983887     
    726     (1,807)               99.984863     
    727     (1,808)               99.984375     
    728     (1,809)               99.984375     
    729     (1,810)               100.05493     
    730     (1,811)               100.05420     
    731     (1,812)               99.990723     
    732     (1,813)               99.991699     
    740     (1,821)               99.985107     
    741     (1,822)               99.984375     
    742     (1,823)               99.984375     
    749     (1,832)               100.05444     
    750     (1,833)               100.05371     
    751     (1,834)               99.983643     
    752     (1,835)               99.983398     
    753     (1,836)               99.984131     
    754     (1,837)               99.983643     
    755     (1,838)               99.984863     
    756     (1,839)               99.983643     
    757     (1,840)               99.984375     
    758     (1,841)               100.05493     
    759     (1,842)               100.05469     
    760     (1,843)               99.984619     
    761     (1,844)               99.991699     
    762     (1,845)               99.991455     
    763     (1,846)               99.984375     
    764     (1,847)               99.984375     
    765     (1,848)               99.983643     
    766     (1,849)               99.984375     
    767     (1,850)               100.05396     
    768     (1,851)               100.05542     
    769     (1,852)               99.984619     
    770     (1,853)               99.984375     
    771     (1,854)               99.983643     
    772     (1,855)               99.983887     
    773     (1,856)               99.983154     
    774     (1,857)               99.982910     
    775     (1,858)               99.984375     
    776     (1,859)               100.02490     
    777     (1,860)               24.999268     
    778     (1,861)               25.032471     
    779     (1,862)               24.996826     
    780     (1,863)               24.995605     
    781     (1,864)               24.996338     
    782     (1,865)               24.996094     
    783     (1,866)               25.030762     
    784     (1,867)               24.994385     
    785     (1,868)               100.01733     
    786     (1,869)               99.984619     
    787     (1,870)               99.984619     
    788     (1,871)               99.984131     
    789     (1,872)               99.984619     
    790     (1,873)               99.982422     
    791     (1,874)               99.984375     
    792     (1,875)               100.05566     
    793     (1,876)               100.05493     
    794     (1,877)               99.982910     
    795     (1,878)               99.984863     
    796     (1,879)               99.983887     
    797     (1,880)               99.990479     
    798     (1,881)               99.990479     
    799     (1,882)               99.984619     
    800     (1,883)               99.984375     
    801     (1,884)               100.05469     
    802     (1,885)               100.05493     
    803     (1,886)               99.984619     
    804     (1,887)               99.983887     
    805     (1,888)               99.984619     
    806     (1,889)               99.983398     
    807     (1,890)               99.984863     
    808     (1,891)               99.984131     
    809     (1,892)               99.984375     
    810     (1,893)               99.982910     
    811     (1,894)               100.06104     
    812     (1,895)               100.06152     
    813     (1,896)               99.984619     
    819     (1,902)               99.983154     
    820     (1,903)               100.05566     
    821     (1,904)               100.05444     
    822     (1,905)               99.983643     
    823     (1,906)               99.985107     
    830     (1,915)               99.984619     
    831     (1,916)               100.05322     
    832     (1,917)               100.05518     
    833     (1,918)               99.983643     
    834     (1,919)               99.983887     
    835     (1,920)               99.984375     
    836     (1,921)               99.985352     
    837     (1,922)               99.983887     
    838     (1,923)               99.984131     
    839     (1,924)               99.983887     
    840     (1,925)               100.05518     
    841     (1,926)               100.06201     
    842     (1,927)               99.990479     
    843     (1,928)               99.983643     
    844     (1,929)               99.984619     
    845     (1,930)               99.984375     
    846     (1,931)               99.983154     
    847     (1,932)               99.983398     
    848     (1,933)               99.983643     
    849     (1,934)               100.05420     
    850     (1,935)               100.05420     
    851     (1,936)               99.983887     
    852     (1,937)               99.983643     
    853     (1,938)               99.984863     
    854     (1,939)               99.983398     
    855     (1,940)               99.983398     
    856     (1,941)               99.990479     
    857     (1,942)               99.990479     
    858     (1,943)               100.01904     
    859     (1,944)               24.996826     
    860     (1,945)               25.031738     
    861     (1,946)               24.996338     
    862     (1,947)               24.996094     
    863     (1,948)               24.995361     
    864     (1,949)               24.996338     
    865     (1,950)               25.031738     
    866     (1,951)               24.995361     
    867     (1,952)               100.00415     
    868     (1,953)               99.982910     
    869     (1,954)               99.983154     
    870     (1,955)               99.984863     
    871     (1,956)               99.984375     
    872     (1,957)               99.983643     
    873     (1,958)               99.983887     
    874     (1,959)               100.05444     
    875     (1,960)               100.05493     
    876     (1,961)               99.984131     
    877     (1,962)               99.990967     
    878     (1,963)               99.991455     
    879     (1,964)               99.983398     
    880     (1,965)               99.983887     
    881     (1,966)               99.984619     
    882     (1,967)               99.983643     
    883     (1,968)               100.05518     
    884     (1,969)               100.05322     
    885     (1,970)               99.983398     
    886     (1,971)               99.984619     
    887     (1,972)               99.983398     
    888     (1,973)               99.984131     
    889     (1,974)               99.982910     
    890     (1,975)               99.984863     
    891     (1,976)               99.991211     
    892     (1,977)               99.991455     
    893     (1,978)               100.05566     
    894     (1,979)               100.05396     
    895     (1,980)               99.984375     
    896     (1,981)               99.983643     
    897     (1,982)               99.983398     
    898     (1,983)               99.984619     
    899     (1,984)               99.984863     
    900     (1,985)               99.984863     
    901     (1,986)               99.985107     
    902     (1,987)               100.05469     
    903     (1,988)               100.05347     
    904     (1,989)               99.984131     
    911     (1,998)               99.983398     
    912     (1,999)               99.983887     
    913     (1,1000)              100.05396     
    914     (1,1001)              100.05493     
    915     (1,1002)              99.983887     
    916     (1,1003)              99.983643     
    917     (1,1004)              99.983154     
    918     (1,1005)              99.983398     
    919     (1,1006)              99.984131     
    920     (1,1007)              99.983643     
    921     (1,1008)              99.991943     
    922     (1,1009)              100.06299     
    923     (1,1010)              100.05444     
    924     (1,1011)              99.984619     
    925     (1,1012)              99.985107     
    926     (1,1013)              99.984131     
    927     (1,1014)              99.984619     
    928     (1,1015)              99.983398     
    929     (1,1016)              99.984131     
    930     (1,1017)              99.984375     
    931     (1,1018)              100.05444     
    932     (1,1019)              100.05396     
    933     (1,1020)              99.984131     
    934     (1,1021)              99.983154     
    935     (1,1022)              99.983643     
    936     (1,1023)              99.991211     
    937     (1,1024)              99.991699     
    938     (1,1025)              99.983643     
    939     (1,1026)              99.983643     
    940     (1,1027)              100.01880     
    941     (1,1028)              24.995605     
    942     (1,1029)              25.031982     
    943     (1,1030)              24.997559     
    944     (1,1031)              24.995605     
    945     (1,1032)              100.05615     
    946     (1,1033)              99.984131     
    947     (1,1034)              99.984619     
    948     (1,1035)              99.983398     
    949     (1,1036)              99.983887     
    950     (1,1037)              99.984863     
    951     (1,1038)              99.984375     
    952     (1,1039)              99.984375     
    953     (1,1040)              100.05615     
    954     (1,1041)              100.06104     
    955     (1,1042)              99.990723     
    956     (1,1043)              99.983887     
    957     (1,1044)              99.983643     
    958     (1,1045)              99.983643     
    959     (1,1046)              99.983154     
    960     (1,1047)              99.983398     
    961     (1,1048)              99.984375     
    962     (1,1049)              100.05518     
    963     (1,1050)              100.05371     
    964     (1,1051)              99.983398     
    965     (1,1052)              99.983398     
    966     (1,1053)              99.984375     
    967     (1,1054)              99.983887     
    968     (1,1055)              99.991455     
    969     (1,1056)              99.991211     
    970     (1,1057)              99.984375     
    971     (1,1058)              99.983398     
    972     (1,1059)              100.05396     
    973     (1,1060)              100.05420     
    974     (1,1061)              99.984375     
    975     (1,1062)              99.983887     
    976     (1,1063)              99.985107     
    977     (1,1064)              99.983398     
    978     (1,1065)              99.983154     
    979     (1,1066)              99.984131     
    980     (1,1067)              99.984619     
    981     (1,1068)              100.05371     
    982     (1,1069)              100.05542     
    989     (1,1078)              99.984131     
    990     (1,1079)              99.983643     
    991     (1,1080)              99.984619     
    992     (1,1081)              100.05493     
    993     (1,1082)              100.05493     
    994     (1,1083)              99.984131     
    995     (1,1084)              99.984375     
    996     (1,1085)              99.983398     
    997     (1,1086)              99.983887     
    998     (1,1087)              99.990723     
    999     (1,1088)              99.990967     
    1000    (1,1089)              99.984619     
    1001    (1,1090)              100.05371     
    1002    (1,1091)              100.05469     
    1003    (1,1092)              99.985107     
    1004    (1,1093)              99.983398     
    1005    (1,1094)              99.984863     
    1006    (1,1095)              99.983643     
    1007    (1,1096)              99.984619     
    1008    (1,1097)              99.983398     
    1009    (1,1098)              99.984863     
    1010    (1,1099)              100.05420     
    1011    (1,1100)              100.05493     
    1012    (1,1101)              99.984619     
    1013    (1,1102)              99.991211     
    1014    (1,1103)              99.991455     
    1015    (1,1104)              99.984131     
    1016    (1,1105)              99.984131     
    1017    (1,1106)              99.983887     
    1018    (1,1107)              100.00049     
    1019    (1,1108)              24.996582     
    1020    (1,1109)              24.996094     
    1021    (1,1110)              24.996582     
    1022    (1,1111)              24.996338     
    1023    (1,1112)              100.01929     
    1024    (1,1113)              100.05444     
    1025    (1,1114)              99.984375     
    1026    (1,1115)              99.984375     
    1027    (1,1116)              99.984619     
    1028    (1,1117)              99.984619     
    1029    (1,1118)              99.984375     
    1030    (1,1119)              99.984863     
    1031    (1,1120)              99.990723     
    1032    (1,1121)              100.06079     
    1033    (1,1122)              100.05493     
    1034    (1,1123)              99.983887     
    1035    (1,1124)              99.984863     
    1036    (1,1125)              99.984619     
    1037    (1,1126)              99.984131     
    1038    (1,1127)              99.984131     
    1039    (1,1128)              99.983643     
    1040    (1,1129)              99.983398     
    1041    (1,1130)              100.05444     
    1042    (1,1131)              100.05444     
    1043    (1,1132)              99.984131     
    1044    (1,1133)              99.982910     
    1045    (1,1134)              99.990723     
    1046    (1,1135)              99.991699     
    1047    (1,1136)              99.984131     
    1048    (1,1137)              99.984619     
    1049    (1,1138)              99.984375     
    1050    (1,1139)              99.984863     
    1051    (1,1140)              100.05469     
    1052    (1,1141)              100.05542     
    1053    (1,1142)              99.984619     
    1054    (1,1143)              99.985107     
    1055    (1,1144)              99.983887     
    1056    (1,1145)              99.983643     
    1057    (1,1146)              99.983398     
    1058    (1,1147)              99.984131     
    1059    (1,1148)              99.983398     
    1067    (1,1158)              99.984375     
    1068    (1,1159)              99.982910     
    1069    (1,1160)              99.983398     
    1070    (1,1161)              99.984375     
    1071    (1,1162)              100.05518     
    1072    (1,1163)              100.05371     
    1073    (1,1164)              99.984863     
    1074    (1,1165)              99.984375     
    1075    (1,1166)              99.989990     
    1076    (1,1167)              99.989990     
    1077    (1,1168)              99.983887     
    1078    (1,1169)              99.983643     
    1079    (1,1170)              99.984863     
    1080    (1,1171)              100.05420     
    1081    (1,1172)              100.05493     
    1082    (1,1173)              99.983154     
    1083    (1,1174)              99.984619     
    1084    (1,1175)              99.984863     
    1085    (1,1176)              99.983398     
    1086    (1,1177)              99.984131     
    1087    (1,1178)              99.984131     
    1088    (1,1179)              99.985107     
    1089    (1,1180)              100.05518     
    1090    (1,1181)              100.06226     
    1091    (1,1182)              99.990479     
    1092    (1,1183)              99.983643     
    1093    (1,1184)              99.983887     
    1094    (1,1185)              99.985107     
    1095    (1,1186)              99.984375     
    1096    (1,1187)              99.999756     
    1097    (1,1188)              24.994873     
    1098    (1,1189)              24.996582     
    1099    (1,1190)              24.995850     
    1100    (1,1191)              24.996826     
    1101    (1,1192)              24.995850     
    1102    (1,1193)              24.999756     
    1103    (1,1194)              25.000000     
    1104    (1,1195)              24.996094     
    1105    (1,1196)              100.03516     
    1106    (1,1197)              100.05469     
    1107    (1,1198)              99.984619     
    1108    (1,1199)              99.984131     
    1109    (1,1200)              99.984131     
    1110    (1,1201)              99.984375     
    1111    (1,1202)              99.990723     
    1112    (1,1203)              99.991211     
    1113    (1,1204)              99.983643     
    1114    (1,1205)              100.05615     
    1115    (1,1206)              100.05493     
    1116    (1,1207)              99.984131     
    1117    (1,1208)              99.985596     
    1118    (1,1209)              99.983643     
    1119    (1,1210)              99.983398     
    1120    (1,1211)              99.984375     
    1121    (1,1212)              99.983887     
    1122    (1,1213)              99.984863     
    1123    (1,1214)              100.05444     
    1124    (1,1215)              100.05518     
    1125    (1,1216)              99.989746     
    1126    (1,1217)              99.990479     
    1127    (1,1218)              99.983887     
    1128    (1,1219)              99.983643     
    1129    (1,1220)              99.984619     
    1130    (1,1221)              99.983887     
    1131    (1,1222)              99.984619     
    1132    (1,1223)              99.984619     
    1133    (1,1224)              100.05493     
    1134    (1,1225)              100.05518     
    1135    (1,1226)              99.984375     
    1136    (1,1227)              99.984863     
    1137    (1,1228)              99.985107     
    1138    (1,1229)              99.984619     
    1139    (1,1230)              99.983643     
    1140    (1,1231)              99.991211     
    1141    (1,1232)              99.992432     
    1148    (1,1241)              99.983643     
    1149    (1,1242)              99.983643     
    1150    (1,1243)              99.982666     
    1151    (1,1244)              99.984375     
    1152    (1,1245)              99.983887     
    1153    (1,1246)              100.05542     
    1154    (1,1247)              100.05542     
    1155    (1,1248)              99.992188     
    1156    (1,1249)              99.991943     
    1157    (1,1250)              99.984619     
    1158    (1,1251)              99.984619     
    1159    (1,1252)              99.984131     
    1160    (1,1253)              99.983887     
    1161    (1,1254)              99.983643     
    1162    (1,1255)              100.05542     
    1163    (1,1256)              100.05469     
    1164    (1,1257)              99.984619     
    1165    (1,1258)              99.984375     
    1166    (1,1259)              99.985107     
    1167    (1,1260)              99.984131     
    1168    (1,1261)              99.984863     
    1169    (1,1262)              99.983887     
    1170    (1,1263)              99.992920     
    1171    (1,1264)              100.06030     
    1172    (1,1265)              100.05396     
    1173    (1,1266)              99.985107     
    1174    (1,1267)              99.983887     
    1175    (1,1268)              99.984619     
    1176    (1,1269)              99.984619     
    1177    (1,1270)              99.984619     
    1178    (1,1271)              100.02271     
    1179    (1,1272)              24.994629     
    1180    (1,1273)              24.997070     
    1181    (1,1274)              24.995605     
    1182    (1,1275)              24.995605     
    1183    (1,1276)              99.964355     
    1184    (1,1277)              100.05542     
    1185    (1,1278)              100.05542     
    1186    (1,1279)              99.984375     
    1187    (1,1280)              99.983398     
    1188    (1,1281)              99.992188     
    1189    (1,1282)              99.991699     
    1190    (1,1283)              99.985107     
    1191    (1,1284)              99.983398     
    1192    (1,1285)              99.984863     
    1193    (1,1286)              100.05420     
    1194    (1,1287)              100.05493     
    1195    (1,1288)              99.985352     
    1196    (1,1289)              99.984619     
    1197    (1,1290)              99.983887     
    1198    (1,1291)              99.983643     
    1199    (1,1292)              99.983643     
    1200    (1,1293)              99.983643     
    1201    (1,1294)              99.984131     
    1202    (1,1295)              100.06104     
    1203    (1,1296)              100.06152     
    1204    (1,1297)              99.983887     
    1205    (1,1298)              99.984863     
    1206    (1,1299)              99.984863     
    1207    (1,1300)              99.984375     
    1208    (1,1301)              99.984131     
    1209    (1,1302)              99.984619     
    1210    (1,1303)              99.984131     
    1211    (1,1304)              99.984863     
    1212    (1,1305)              100.05518     
    1213    (1,1306)              100.05469     
    1214    (1,1307)              99.984619     
    1215    (1,1308)              99.984131     
    1216    (1,1309)              99.983887     
    1217    (1,1310)              99.991211     
    1218    (1,1311)              99.990967     
    1219    (1,1312)              99.983398     
    1226    (1,1320)              99.985596     
    1227    (1,1321)              99.984375     
    1228    (1,1322)              99.985107     
    1229    (1,1323)              99.984619     
    1230    (1,1324)              99.983643     
    1231    (1,1325)              99.985107     
    1232    (1,1326)              100.06250     
    1233    (1,1327)              100.06152     
    1234    (1,1328)              99.984131     
    1235    (1,1329)              99.983643     
    1236    (1,1330)              99.983887     
    1237    (1,1331)              99.983887     
    1238    (1,1332)              99.984131     
    1239    (1,1333)              99.984131     
    1240    (1,1334)              99.984375     
    1241    (1,1335)              100.05444     
    1242    (1,1336)              100.05566     
    1243    (1,1337)              99.984131     
    1244    (1,1338)              99.983154     
    1245    (1,1339)              99.984619     
    1246    (1,1340)              99.984375     
    1247    (1,1341)              99.990479     
    1248    (1,1342)              99.991455     
    1249    (1,1343)              99.984131     
    1250    (1,1344)              100.05493     
    1251    (1,1345)              100.05371     
    1252    (1,1346)              99.983887     
    1253    (1,1347)              99.982910     
    1254    (1,1348)              99.983398     
    1255    (1,1349)              99.983643     
    1256    (1,1350)              100.02148     
    1257    (1,1351)              24.996826     
    1258    (1,1352)              24.996094     
    1259    (1,1353)              24.995605     
    1260    (1,1354)              24.996338     
    1261    (1,1355)              99.966553     
    1262    (1,1356)              99.984131     
    1263    (1,1357)              100.05469     
    1264    (1,1358)              100.05371     
    1265    (1,1359)              99.990723     
    1266    (1,1360)              99.991943     
    1267    (1,1361)              99.984375     
    1268    (1,1362)              99.984863     
    1269    (1,1363)              99.984375     
    1270    (1,1364)              99.984619     
    1271    (1,1365)              99.965332     
    1272    (1,1366)              100.03491     
    1273    (1,1367)              100.05420     
    1274    (1,1368)              99.984131     
    1275    (1,1369)              99.984131     
    1276    (1,1370)              99.984131     
    1277    (1,1371)              99.983398     
    1278    (1,1372)              99.983887     
    1279    (1,1373)              99.991211     
    1280    (1,1374)              99.990723     
    1281    (1,1375)              100.05493     
    1282    (1,1376)              100.05493     
    1283    (1,1377)              99.984131     
    1284    (1,1378)              99.984131     
    1285    (1,1379)              99.984375     
    1286    (1,1380)              99.983643     
    1287    (1,1381)              99.983887     
    1288    (1,1382)              99.983398     
    1289    (1,1383)              99.983887     
    1290    (1,1384)              99.983154     
    1291    (1,1385)              100.05396     
    1292    (1,1386)              100.05444     
    1293    (1,1387)              99.984131     
    1294    (1,1388)              99.990723     
    1295    (1,1389)              99.990967     
    1296    (1,1390)              99.984619     
    1297    (1,1391)              99.984131     
    1304    (1,1400)              99.984131     
    1305    (1,1401)              99.985107     
    1306    (1,1402)              99.984863     
    1307    (1,1403)              99.991211     
    1308    (1,1404)              99.991699     
    1309    (1,1405)              100.05420     
    1310    (1,1406)              100.05444     
    1311    (1,1407)              99.983643     
    1312    (1,1408)              99.983398     
    1313    (1,1409)              99.984131     
    1314    (1,1410)              99.984131     
    1315    (1,1411)              99.983643     
    1316    (1,1412)              99.984131     
    1317    (1,1413)              99.984375     
    1318    (1,1414)              100.05469     
    1319    (1,1415)              100.05518     
    1320    (1,1416)              99.984375     
    1321    (1,1417)              99.984863     
    1322    (1,1418)              99.991699     
    1323    (1,1419)              99.989502     
    1324    (1,1420)              99.984619     
    1325    (1,1421)              99.984131     
    1326    (1,1422)              99.983643     
    1327    (1,1423)              100.05493     
    1328    (1,1424)              100.05493     
    1329    (1,1425)              99.984619     
    1330    (1,1426)              99.984619     
    1331    (1,1427)              99.968750     
    1332    (1,1428)              24.996094     
    1333    (1,1429)              24.996338     
    1334    (1,1430)              24.995361     
    1335    (1,1431)              24.995850     
    1336    (1,1432)              25.031738     
    1337    (1,1433)              24.996582     
    1338    (1,1434)              24.996582     
    1339    (1,1435)              25.030518     
    1340    (1,1436)              99.948242     
    1341    (1,1437)              99.983643     
    1342    (1,1438)              99.983398     
    1343    (1,1439)              100.06177     
    1344    (1,1440)              100.06079     
    1345    (1,1441)              99.984131     
    1346    (1,1442)              99.984619     
    1347    (1,1443)              99.984375     
    1348    (1,1444)              99.984863     
    1349    (1,1445)              99.980957     
    1350    (1,1446)              24.996582     
    1351    (1,1447)              24.996582     
    1352    (1,1448)              24.996582     
    1353    (1,1449)              24.996582     
    1354    (1,1450)              24.995117     
    1355    (1,1451)              25.000000     
    1356    (1,1452)              24.999512     
    1357    (1,1453)              24.996582     
    1358    (1,1454)              100.01807     
    1359    (1,1455)              100.05566     
    1360    (1,1456)              99.984131     
    1361    (1,1457)              99.983643     
    1362    (1,1458)              99.984131     
    1363    (1,1459)              99.984131     
    1364    (1,1460)              99.991455     
    1365    (1,1461)              99.984619     
    1366    (1,1462)              99.984375     
    1367    (1,1463)              100.05566     
    1368    (1,1464)              100.05469     
    1369    (1,1465)              99.984375     
    1370    (1,1466)              99.984375     
    1371    (1,1467)              99.983643     
    1372    (1,1468)              99.983887     
    1373    (1,1469)              99.984131     
    1374    (1,1470)              99.984375     
    1375    (1,1471)              99.984619     
    1376    (1,1472)              99.984863     
    1377    (1,1473)              100.05566     
    1378    (1,1474)              100.06250     
    1379    (1,1475)              99.990967     
    1380    (1,1476)              99.983887     
    1381    (1,1477)              99.984131     
    1382    (1,1478)              99.984863     
    1389    (1,1487)              99.984131     
    1390    (1,1488)              99.992188     
    1391    (1,1489)              99.991455     
    1392    (1,1490)              99.984375     
    1393    (1,1491)              99.984619     
    1394    (1,1492)              100.05396     
    1395    (1,1493)              100.05420     
    1396    (1,1494)              99.983398     
    1397    (1,1495)              99.983643     
    1398    (1,1496)              99.984375     
    1399    (1,1497)              99.983643     
    1400    (1,1498)              99.983887     
    1401    (1,1499)              99.984131     
    1402    (1,1500)              99.984375     
    1403    (1,1501)              100.05518     
    1404    (1,1502)              100.05518     
    1405    (1,1503)              99.991943     
    1406    (1,1504)              99.991211     
    1407    (1,1505)              99.982910     
    1408    (1,1506)              99.983398     
    1409    (1,1507)              99.983887     
    1410    (1,1508)              99.983398     
    1411    (1,1509)              99.983887     
    1412    (1,1510)              100.05469     
    1413    (1,1511)              100.05469     
    1414    (1,1512)              99.984375     
    1415    (1,1513)              99.968750     
    1416    (1,1514)              24.995605     
    1417    (1,1515)              24.996582     
    1418    (1,1516)              24.995361     
    1419    (1,1517)              24.995361     
    1420    (1,1518)              24.996338     
    1421    (1,1519)              24.997559     
    1422    (1,1520)              24.996582     
    1423    (1,1521)              24.996094     
    1424    (1,1522)              25.031982     
    1425    (1,1523)              24.996094     
    1426    (1,1524)              24.996338     
    1427    (1,1525)              25.032471     
    1428    (1,1526)              99.949219     
    1429    (1,1527)              99.973145     
    1430    (1,1528)              99.969482     
    1431    (1,1529)              100.03564     
    1432    (1,1530)              100.05273     
    1433    (1,1531)              100.00049     
    1434    (1,1532)              100.00000     
    1435    (1,1533)              99.979736     
    1436    (1,1534)              25.030762     
    1437    (1,1535)              24.996582     
    1438    (1,1536)              24.996826     
    1439    (1,1537)              25.031738     
    1440    (1,1538)              24.996338     
    1441    (1,1539)              24.999512     
    1442    (1,1540)              25.000000     
    1443    (1,1541)              24.996582     
    1444    (1,1542)              24.995605     
    1445    (1,1543)              24.995117     
    1446    (1,1544)              24.996094     
    1447    (1,1545)              24.995605     
    1448    (1,1546)              24.996338     
    1449    (1,1547)              24.995117     
    1450    (1,1548)              24.996094     
    1451    (1,1549)              24.994873     
    1452    (1,1550)              100.03564     
    1453    (1,1551)              100.05396     
    1454    (1,1552)              99.984131     
    1455    (1,1553)              99.984863     
    1456    (1,1554)              99.990479     
    1457    (1,1555)              99.990723     
    1458    (1,1556)              99.984619     
    1459    (1,1557)              99.984375     
    1460    (1,1558)              99.984619     
    1461    (1,1559)              100.05566     
    1462    (1,1560)              100.05444     
    1463    (1,1561)              99.983887     
    1464    (1,1562)              99.985107     
    1465    (1,1563)              99.984619     
    1466    (1,1564)              99.983887     
    1467    (1,1565)              99.984375     
    1468    (1,1566)              99.984375     
    1469    (1,1567)              99.983643     
    1470    (1,1568)              99.991455     
    1471    (1,1569)              100.06177     
    1472    (1,1570)              100.05493     
    1473    (1,1571)              99.984619     
    1482    (1,1582)              99.991455     
    1483    (1,1583)              99.984131     
    1484    (1,1584)              99.984131     
    1485    (1,1585)              99.983154     
    1486    (1,1586)              99.983887     
    1487    (1,1587)              100.05469     
    1488    (1,1588)              100.05542     
    1489    (1,1589)              99.983643     
    1490    (1,1590)              99.983643     
    1491    (1,1591)              99.983154     
    1492    (1,1592)              99.983643     
    1493    (1,1593)              99.984619     
    1494    (1,1594)              99.984131     
    1495    (1,1595)              99.985107     
    1496    (1,1596)              100.06152     
    1497    (1,1597)              100.06128     
    1498    (1,1598)              99.984619     
    1499    (1,1599)              99.984619     
    1500    (1,1600)              99.984863     
    1501    (1,1601)              99.984375     
    1502    (1,1602)              99.985107     
    1503    (1,1603)              99.983643     
    1504    (1,1604)              99.984131     
    1505    (1,1605)              100.05469     
    1506    (1,1606)              100.05469     
    1507    (1,1607)              99.984131     
    1508    (1,1608)              99.965088     
    1509    (1,1609)              99.948730     
    1510    (1,1610)              24.996338     
    1511    (1,1611)              24.994873     
    1512    (1,1612)              24.995850     
    1513    (1,1613)              24.995850     
    1514    (1,1614)              25.031494     
    1515    (1,1615)              24.995850     
    1516    (1,1616)              24.995605     
    1517    (1,1617)              25.035400     
    1518    (1,1618)              24.998291     
    1519    (1,1619)              24.996338     
    1520    (1,1620)              24.994873     
    1521    (1,1621)              24.995605     
    1522    (1,1622)              24.996338     
    1523    (1,1623)              24.996338     
    1524    (1,1624)              24.995850     
    1525    (1,1625)              24.995605     
    1526    (1,1626)              24.996338     
    1527    (1,1627)              24.995361     
    1528    (1,1628)              24.995850     
    1529    (1,1629)              24.996826     
    1530    (1,1630)              24.995605     
    1531    (1,1631)              25.030273     
    1532    (1,1632)              24.995605     
    1533    (1,1633)              24.996338     
    1534    (1,1634)              24.995361     
    1535    (1,1635)              24.996338     
    1536    (1,1636)              25.030518     
    1537    (1,1637)              24.995605     
    1538    (1,1638)              24.994629     
    1539    (1,1639)              24.996094     
    1540    (1,1640)              24.996338     
    1541    (1,1641)              24.996582     
    1542    (1,1642)              24.995605     
    1543    (1,1643)              24.996582     
    1544    (1,1644)              24.996094     
    1545    (1,1645)              24.995850     
    1546    (1,1646)              24.995605     
    1547    (1,1647)              24.999268     
    1548    (1,1648)              24.999023     
    1549    (1,1649)              24.995605     
    1550    (1,1650)              25.030762     
    1551    (1,1651)              24.994629     
    1552    (1,1652)              24.996826     
    1553    (1,1653)              25.030762     
    1554    (1,1654)              24.995117     
    1555    (1,1655)              24.996094     
    1556    (1,1656)              24.996582     
    1557    (1,1657)              24.996338     
    1558    (1,1658)              24.995605     
    1559    (1,1659)              24.996094     
    1560    (1,1660)              24.995117     
    1561    (1,1661)              24.996338     
    1562    (1,1662)              99.947510     
    1563    (1,1663)              100.05469     
    1564    (1,1664)              100.05420     
    1565    (1,1665)              99.990479     
    1566    (1,1666)              99.991455     
    1567    (1,1667)              99.983643     
    1568    (1,1668)              99.983887     
    1569    (1,1669)              99.983887     
    1570    (1,1670)              99.983154     
    1571    (1,1671)              99.983887     
    1572    (1,1672)              100.05396     
    1573    (1,1673)              100.05469     
    1574    (1,1674)              99.983398     
    1575    (1,1675)              99.983643     
    1576    (1,1676)              99.983643     
    1577    (1,1677)              99.983398     
    1578    (1,1678)              99.984619     
    1579    (1,1679)              99.990234     
    1580    (1,1680)              99.991943     
    1581    (1,1681)              99.983887     
    1582    (1,1682)              100.05396     
    1583    (1,1683)              100.05420     
    1592    (1,1694)              99.983643     
    1593    (1,1695)              99.985107     
    1594    (1,1696)              99.984619     
    1595    (1,1697)              99.984375     
    1596    (1,1698)              99.984619     
    1597    (1,1699)              100.05493     
    1598    (1,1700)              100.05420     
    1599    (1,1701)              99.983887     
    1600    (1,1702)              99.985352     
    1601    (1,1703)              99.984619     
    1602    (1,1704)              99.983887     
    1603    (1,1705)              99.983887     
    1604    (1,1706)              99.991455     
    1605    (1,1707)              99.990479     
    1606    (1,1708)              100.05469     
    1607    (1,1709)              100.05469     
    1608    (1,1710)              99.984619     
    1609    (1,1711)              99.983887     
    1610    (1,1712)              99.984131     
    1611    (1,1713)              99.984619     
    1612    (1,1714)              99.983887     
    1613    (1,1715)              99.983398     
    1614    (1,1716)              99.983887     
    1615    (1,1717)              100.05469     
    1616    (1,1718)              100.05396     
    1617    (1,1719)              99.983643     
    1618    (1,1720)              99.983887     
    1619    (1,1721)              99.970703     
    1620    (1,1722)              99.973877     
    1621    (1,1723)              100.00269     
    1622    (1,1724)              100.00488     
    1623    (1,1725)              100.00317     
    1624    (1,1726)              100.00317     
    1625    (1,1727)              100.05591     
    1626    (1,1728)              100.03931     
    1627    (1,1729)              99.968994     
    1628    (1,1730)              99.946777     
    1629    (1,1731)              24.996094     
    1630    (1,1732)              24.996094     
    1631    (1,1733)              24.997070     
    1632    (1,1734)              24.995605     
    1633    (1,1735)              25.030518     
    1634    (1,1736)              24.996094     
    1635    (1,1737)              24.996094     
    1636    (1,1738)              25.031250     
    1637    (1,1739)              24.994629     
    1638    (1,1740)              24.995361     
    1639    (1,1741)              24.996094     
    1640    (1,1742)              24.996338     
    1641    (1,1743)              24.996826     
    1642    (1,1744)              24.996826     
    1643    (1,1745)              24.995605     
    1644    (1,1746)              24.996582     
    1645    (1,1747)              99.963623     
    1646    (1,1748)              100.06201     
    1647    (1,1749)              100.06201     
    1648    (1,1750)              99.984131     
    1649    (1,1751)              99.984131     
    1650    (1,1752)              99.985352     
    1651    (1,1753)              99.984619     
    1652    (1,1754)              99.984131     
    1653    (1,1755)              99.983643     
    1654    (1,1756)              99.984375     
    1655    (1,1757)              100.05469     
    1656    (1,1758)              100.05542     
    1657    (1,1759)              99.984131     
    1658    (1,1760)              99.983887     
    1659    (1,1761)              99.984863     
    1660    (1,1762)              99.990967     
    1661    (1,1763)              99.991211     
    1662    (1,1764)              99.984619     
    1663    (1,1765)              99.984131     
    1664    (1,1766)              99.984619     
    1665    (1,1767)              100.05518     
    1674    (1,1778)              99.984131     
    1675    (1,1779)              99.984863     
    1676    (1,1780)              99.983398     
    1677    (1,1781)              99.983154     
    1678    (1,1782)              99.984375     
    1679    (1,1783)              100.05518     
    1680    (1,1784)              100.05420     
    1681    (1,1785)              99.983643     
    1682    (1,1786)              99.983643     
    1683    (1,1787)              99.982910     
    1684    (1,1788)              99.990723     
    1685    (1,1789)              99.991455     
    1686    (1,1790)              99.983887     
    1687    (1,1791)              99.983887     
    1688    (1,1792)              100.05347     
    1689    (1,1793)              100.05542     
    1690    (1,1794)              99.984131     
    1691    (1,1795)              99.983643     
    1692    (1,1796)              99.984619     
    1693    (1,1797)              99.984375     
    1694    (1,1798)              99.985107     
    1695    (1,1799)              99.984619     
    1696    (1,1800)              99.984131     
    1697    (1,1801)              100.05322     
    1698    (1,1802)              100.05469     
    1699    (1,1803)              99.989258     
    1700    (1,1804)              99.990967     
    1701    (1,1805)              99.983643     
    1702    (1,1806)              99.984863     
    1703    (1,1807)              99.984375     
    1704    (1,1808)              99.983154     
    1705    (1,1809)              99.983398     
    1706    (1,1810)              99.983398     
    1707    (1,1811)              100.05420     
    1708    (1,1812)              100.05420     
    1709    (1,1813)              99.983887     
    1710    (1,1814)              99.964111     
    1711    (1,1815)              99.969482     
    1712    (1,1816)              25.030518     
    1713    (1,1817)              24.996338     
    1714    (1,1818)              24.996338     
    1715    (1,1819)              25.031494     
    1716    (1,1820)              24.995361     
    1717    (1,1821)              24.995850     
    1718    (1,1822)              24.995361     
    1719    (1,1823)              24.995605     
    1720    (1,1824)              99.971680     
    1721    (1,1825)              99.990967     
    1722    (1,1826)              100.05591     
    1723    (1,1827)              100.05420     
    1724    (1,1828)              99.983154     
    1725    (1,1829)              99.984375     
    1726    (1,1830)              99.984619     
    1727    (1,1831)              99.982422     
    1728    (1,1832)              99.983154     
    1729    (1,1833)              99.983887     
    1730    (1,1834)              99.983643     
    1731    (1,1835)              100.05444     
    1732    (1,1836)              100.05444     
    1733    (1,1837)              99.983887     
    1734    (1,1838)              99.991455     
    1735    (1,1839)              99.989990     
    1736    (1,1840)              99.984131     
    1737    (1,1841)              99.984375     
    1738    (1,1842)              99.984619     
    1739    (1,1843)              99.983887     
    1740    (1,1844)              99.984375     
    1749    (1,1855)              99.983154     
    1750    (1,1856)              99.983154     
    1751    (1,1857)              99.983887     
    1752    (1,1858)              99.984375     
    1753    (1,1859)              99.983643     
    1754    (1,1860)              100.05444     
    1755    (1,1861)              100.05444     
    1756    (1,1862)              99.983887     
    1757    (1,1863)              99.990234     
    1758    (1,1864)              99.991211     
    1759    (1,1865)              99.984131     
    1760    (1,1866)              99.984131     
    1761    (1,1867)              99.984375     
    1762    (1,1868)              99.984131     
    1763    (1,1869)              100.05444     
    1764    (1,1870)              100.05371     
    1765    (1,1871)              99.984375     
    1766    (1,1872)              99.984863     
    1767    (1,1873)              99.983398     
    1768    (1,1874)              99.983154     
    1769    (1,1875)              99.984375     
    1770    (1,1876)              99.983887     
    1771    (1,1877)              99.984375     
    1772    (1,1878)              100.06030     
    1773    (1,1879)              100.06055     
    1774    (1,1880)              99.984131     
    1775    (1,1881)              99.984619     
    1776    (1,1882)              99.984131     
    1777    (1,1883)              99.983398     
    1778    (1,1884)              99.983887     
    1779    (1,1885)              99.983643     
    1780    (1,1886)              99.984375     
    1781    (1,1887)              99.983398     
    1782    (1,1888)              100.05542     
    1783    (1,1889)              100.05493     
    1784    (1,1890)              99.967529     
    1785    (1,1891)              24.994873     
    1786    (1,1892)              24.995117     
    1787    (1,1893)              24.995361     
    1788    (1,1894)              24.995850     
    1789    (1,1895)              24.995850     
    1790    (1,1896)              24.996094     
    1791    (1,1897)              24.996338     
    1792    (1,1898)              24.996094     
    1793    (1,1899)              100.02222     
    1794    (1,1900)              99.990479     
    1795    (1,1901)              99.983398     
    1796    (1,1902)              99.983398     
    1797    (1,1903)              100.05469     
    1798    (1,1904)              100.05518     
    1799    (1,1905)              99.984131     
    1800    (1,1906)              99.984863     
    1801    (1,1907)              99.984863     
    1802    (1,1908)              99.985107     
    1803    (1,1909)              99.984375     
    1804    (1,1910)              99.984619     
    1805    (1,1911)              99.982910     
    1806    (1,1912)              100.05371     
    1807    (1,1913)              100.06152     
    1808    (1,1914)              99.990967     
    1809    (1,1915)              99.984131     
    1810    (1,1916)              99.984131     
    1811    (1,1917)              99.984131     
    1812    (1,1918)              99.984619     
    1813    (1,1919)              99.984131     
    1814    (1,1920)              99.984131     
    1823    (1,1931)              99.983887     
    1824    (1,1932)              99.983887     
    1825    (1,1933)              99.983643     
    1826    (1,1934)              99.982910     
    1827    (1,1935)              99.984619     
    1828    (1,1936)              100.05566     
    1829    (1,1937)              100.06226     
    1830    (1,1938)              99.991455     
    1831    (1,1939)              99.984131     
    1832    (1,1940)              99.983887     
    1833    (1,1941)              99.983887     
    1834    (1,1942)              99.983398     
    1835    (1,1943)              99.983398     
    1836    (1,1944)              99.984863     
    1837    (1,1945)              100.05493     
    1838    (1,1946)              100.05469     
    1839    (1,1947)              99.982666     
    1840    (1,1948)              99.983887     
    1841    (1,1949)              99.984619     
    1842    (1,1950)              99.983398     
    1843    (1,1951)              99.985107     
    1844    (1,1952)              99.991211     
    1845    (1,1953)              99.991943     
    1846    (1,1954)              100.05493     
    1847    (1,1955)              100.05566     
    1848    (1,1956)              99.984131     
    1849    (1,1957)              99.983887     
    1850    (1,1958)              99.983154     
    1851    (1,1959)              99.984375     
    1852    (1,1960)              99.983887     
    1853    (1,1961)              99.985107     
    1854    (1,1962)              99.984619     
    1855    (1,1963)              99.983887     
    1856    (1,1964)              100.05469     
    1857    (1,1965)              100.03809     
    1858    (1,1966)              24.996826     
    1859    (1,1967)              24.996094     
    1860    (1,1968)              24.996338     
    1861    (1,1969)              24.996094     
    1862    (1,1970)              24.995850     
    1863    (1,1971)              24.996094     
    1864    (1,1972)              24.996094     
    1865    (1,1973)              24.999512     
    1866    (1,1974)              100.00830     
    1867    (1,1975)              99.984619     
    1868    (1,1976)              99.983154     
    1869    (1,1977)              99.985107     
    1870    (1,1978)              99.983887     
    1871    (1,1979)              100.05444     
    1872    (1,1980)              100.05518     
    1873    (1,1981)              99.985107     
    1874    (1,1982)              99.983398     
    1875    (1,1983)              99.984863     
    1876    (1,1984)              99.983887     
    1877    (1,1985)              99.982666     
    1878    (1,1986)              99.983398     
    1879    (1,1987)              99.990479     
    1880    (1,1988)              100.06226     
    1881    (1,1989)              100.05493     
    1882    (1,1990)              99.984131     
    1883    (1,1991)              99.984131     
    1884    (1,1992)              99.983887     
    1885    (1,1993)              99.984131     
    1886    (1,1994)              99.984619     
    1887    (1,1995)              99.984131     
    1888    (1,1996)              99.983398     
    1896    (1,2006)              99.982910     
    1897    (1,2007)              99.984131     
    1898    (1,2008)              99.983887     
    1899    (1,2009)              99.983887     
    1900    (1,2010)              99.990723     
    1901    (1,2011)              100.06226     
    1902    (1,2012)              100.05469     
    1903    (1,2013)              99.983643     
    1904    (1,2014)              99.983398     
    1905    (1,2015)              99.984619     
    1906    (1,2016)              99.984863     
    1907    (1,2017)              99.984131     
    1908    (1,2018)              99.984619     
    1909    (1,2019)              99.983398     
    1910    (1,2020)              100.05518     
    1911    (1,2021)              100.05444     
    1912    (1,2022)              99.983887     
    1913    (1,2023)              99.984375     
    1914    (1,2024)              99.983887     
    1915    (1,2025)              99.992432     
    1916    (1,2026)              99.990723     
    1917    (1,2027)              99.984131     
    1918    (1,2028)              99.984863     
    1919    (1,2029)              100.05493     
    1920    (1,2030)              100.05566     
    1921    (1,2031)              99.983887     
    1922    (1,2032)              99.983643     
    1923    (1,2033)              99.983643     
    1924    (1,2034)              99.984863     
    1925    (1,2035)              99.983398     
    1926    (1,2036)              99.983398     
    1927    (1,2037)              99.983887     
    1928    (1,2038)              99.984131     
    1929    (1,2039)              100.05444     
    1930    (1,2040)              100.02686     
    1931    (1,2041)              25.000000     
    1932    (1,2042)              24.995361     
    1933    (1,2043)              24.996826     
    1934    (1,2044)              24.996338     
    1935    (1,2045)              100.00269     
    1936    (1,2046)              99.984863     
    1937    (1,2047)              99.984375     
    1938    (1,2048)              99.984131     
    1939    (1,2049)              99.983887     
    1940    (1,2050)              99.985107     
    1941    (1,2051)              100.05469     
    1942    (1,2052)              100.05420     
    1943    (1,2053)              99.984131     
    1944    (1,2054)              99.984131     
    1945    (1,2055)              99.985107     
    1946    (1,2056)              99.984863     
    1947    (1,2057)              99.991699     
    1948    (1,2058)              99.991943     
    1949    (1,2059)              99.984131     
    1950    (1,2060)              100.05591     
    1951    (1,2061)              100.05469     
    1952    (1,2062)              99.984375     
    1953    (1,2063)              99.983887     
    1954    (1,2064)              99.984375     
    1955    (1,2065)              99.983643     
    1956    (1,2066)              99.984131     
    1957    (1,2067)              99.983398     
    1965    (1,2077)              99.984863     
    1966    (1,2078)              99.983398     
    1967    (1,2079)              99.990967     
    1968    (1,2080)              99.989990     
    1969    (1,2081)              99.984619     
    1970    (1,2082)              100.05493     
    1971    (1,2083)              100.05493     
    1972    (1,2084)              99.983398     
    1973    (1,2085)              99.983643     
    1974    (1,2086)              99.984375     
    1975    (1,2087)              99.983643     
    1976    (1,2088)              99.984375     
    1977    (1,2089)              99.983887     
    1978    (1,2090)              99.984619     
    1979    (1,2091)              100.05444     
    1980    (1,2092)              100.05396     
    1981    (1,2093)              99.983154     
    1982    (1,2094)              99.991943     
    1983    (1,2095)              99.991455     
    1984    (1,2096)              99.983398     
    1985    (1,2097)              99.984863     
    1986    (1,2098)              99.983887     
    1987    (1,2099)              99.984375     
    1988    (1,2100)              100.05518     
    1989    (1,2101)              100.05591     
    1990    (1,2102)              99.982910     
    1991    (1,2103)              99.983398     
    1992    (1,2104)              99.984131     
    1993    (1,2105)              99.983887     
    1994    (1,2106)              99.983154     
    1995    (1,2107)              99.984619     
    1996    (1,2108)              99.983398     
    1997    (1,2109)              99.990967     
    1998    (1,2110)              100.05957     
    1999    (1,2111)              24.995850     
    2000    (1,2112)              24.997070     
    2001    (1,2113)              25.031738     
    2002    (1,2114)              24.995850     
    2003    (1,2115)              100.00366     
    2004    (1,2116)              99.984863     
    2005    (1,2117)              99.985107     
    2006    (1,2118)              99.984131     
    2007    (1,2119)              99.984619     
    2008    (1,2120)              99.984375     
    2009    (1,2121)              99.982910     
    2010    (1,2122)              100.05469     
    2011    (1,2123)              100.05347     
    2012    (1,2124)              99.984863     
    2013    (1,2125)              99.983887     
    2014    (1,2126)              99.991455     
    2015    (1,2127)              99.991699     
    2016    (1,2128)              99.983643     
    2017    (1,2129)              99.985107     
    2018    (1,2130)              99.984375     
    2019    (1,2131)              100.05566     
    2020    (1,2132)              100.05469     
    2021    (1,2133)              99.983643     
    2022    (1,2134)              99.984375     
    2023    (1,2135)              99.983887     
    2024    (1,2136)              99.984131     
    2025    (1,2137)              99.983887     
    2033    (1,2147)              99.991211     
    2034    (1,2148)              99.991211     
    2035    (1,2149)              99.983643     
    2036    (1,2150)              99.984619     
    2037    (1,2151)              99.983398     
    2038    (1,2152)              100.05371     
    2039    (1,2153)              100.05518     
    2040    (1,2154)              99.983643     
    2041    (1,2155)              99.983643     
    2042    (1,2156)              99.983398     
    2043    (1,2157)              99.983887     
    2044    (1,2158)              99.983887     
    2045    (1,2159)              99.983643     
    2046    (1,2160)              99.984619     
    2047    (1,2161)              100.05420     
    2048    (1,2162)              100.06201     
    2049    (1,2163)              99.991211     
    2050    (1,2164)              99.984131     
    2051    (1,2165)              99.984863     
    2052    (1,2166)              99.984375     
    2053    (1,2167)              99.984131     
    2054    (1,2168)              99.985107     
    2055    (1,2169)              99.984619     
    2056    (1,2170)              100.05518     
    2057    (1,2171)              100.05420     
    2058    (1,2172)              99.983154     
    2059    (1,2173)              99.984131     
    2060    (1,2174)              99.983887     
    2061    (1,2175)              99.983398     
    2062    (1,2176)              99.983154     
    2063    (1,2177)              99.990479     
    2064    (1,2178)              99.991455     
    2065    (1,2179)              99.999756     
    2066    (1,2180)              24.996094     
    2067    (1,2181)              25.031738     
    2068    (1,2182)              24.995605     
    2069    (1,2183)              24.996094     
    2070    (1,2184)              100.05566     
    2071    (1,2185)              99.983887     
    2072    (1,2186)              99.984131     
    2073    (1,2187)              99.983398     
    2074    (1,2188)              99.984619     
    2075    (1,2189)              99.984863     
    2076    (1,2190)              99.984131     
    2077    (1,2191)              99.984619     
    2078    (1,2192)              100.05396     
    2079    (1,2193)              100.05615     
    2080    (1,2194)              99.990967     
    2081    (1,2195)              99.989990     
    2082    (1,2196)              99.984131     
    2083    (1,2197)              99.984375     
    2084    (1,2198)              99.984375     
    2085    (1,2199)              99.983887     
    2086    (1,2200)              99.983887     
    2087    (1,2201)              100.05493     
    2088    (1,2202)              100.05640     
    2089    (1,2203)              100.00366     
    2090    (1,2204)              100.00415     
    2091    (1,2205)              100.00317     
    2092    (1,2206)              100.00415     
    2100    (1,2216)              99.984863     
    2101    (1,2217)              99.984131     
    2102    (1,2218)              99.983643     
    2103    (1,2219)              99.984863     
    2104    (1,2220)              99.984375     
    2105    (1,2221)              100.05396     
    2106    (1,2222)              100.05493     
    2107    (1,2223)              99.983887     
    2108    (1,2224)              99.984375     
    2109    (1,2225)              99.984619     
    2110    (1,2226)              99.983643     
    2111    (1,2227)              99.984375     
    2112    (1,2228)              99.984375     
    2113    (1,2229)              99.990967     
    2114    (1,2230)              100.06128     
    2115    (1,2231)              100.05518     
    2116    (1,2232)              99.984375     
    2117    (1,2233)              99.984863     
    2118    (1,2234)              99.984375     
    2119    (1,2235)              99.983643     
    2120    (1,2236)              99.985352     
    2121    (1,2237)              99.984619     
    2122    (1,2238)              99.983887     
    2123    (1,2239)              100.05542     
    2124    (1,2240)              100.05493     
    2125    (1,2241)              99.984619     
    2126    (1,2242)              99.984375     
    2127    (1,2243)              99.985107     
    2128    (1,2244)              99.992188     
    2129    (1,2245)              99.990967     
    2130    (1,2246)              99.984375     
    2131    (1,2247)              99.999756     
    2132    (1,2248)              24.995361     
    2133    (1,2249)              24.995850     
    2134    (1,2250)              24.997070     
    2135    (1,2251)              24.995850     
    2136    (1,2252)              100.03833     
    2137    (1,2253)              100.05396     
    2138    (1,2254)              99.984131     
    2139    (1,2255)              99.983887     
    2140    (1,2256)              99.984619     
    2141    (1,2257)              99.984619     
    2142    (1,2258)              99.985107     
    2143    (1,2259)              99.985352     
    2144    (1,2260)              99.984375     
    2145    (1,2261)              100.06128     
    2146    (1,2262)              100.06152     
    2147    (1,2263)              99.984375     
    2148    (1,2264)              99.984131     
    2149    (1,2265)              99.984375     
    2150    (1,2266)              100.00073     
    2151    (1,2267)              99.965088     
    2152    (1,2268)              99.965088     
    2153    (1,2269)              99.988525     
    2154    (1,2270)              24.996338     
    2155    (1,2271)              25.031982     
    2156    (1,2272)              24.996338     
    2157    (1,2273)              24.996338     
    2158    (1,2274)              24.996094     
    2159    (1,2275)              24.996338     
    2160    (1,2276)              25.031738     
    2161    (1,2277)              24.996826     
    2162    (1,2278)              24.994873     
    2163    (1,2279)              24.995117     
    2164    (1,2280)              24.995117     
    2165    (1,2281)              24.997070     
    2166    (1,2282)              24.996094     
    2167    (1,2283)              24.995605     
    2168    (1,2284)              24.995361     
    2169    (1,2285)              24.995605     
    2193    (1,2311)              99.983887     
    2194    (1,2312)              99.983398     
    2195    (1,2313)              99.983887     
    2196    (1,2314)              99.983154     
    2197    (1,2315)              99.983643     
    2198    (1,2316)              100.05420     
    2199    (1,2317)              100.05371     
    2200    (1,2318)              99.983643     
    2201    (1,2319)              99.983643     
    2202    (1,2320)              99.982910     
    2203    (1,2321)              99.983887     
    2204    (1,2322)              99.992188     
    2205    (1,2323)              99.991455     
    2206    (1,2324)              99.984863     
    2207    (1,2325)              100.05493     
    2208    (1,2326)              100.05518     
    2209    (1,2327)              99.985107     
    2210    (1,2328)              99.984375     
    2211    (1,2329)              99.984619     
    2212    (1,2330)              99.984375     
    2213    (1,2331)              99.983154     
    2214    (1,2332)              99.984375     
    2215    (1,2333)              99.983398     
    2216    (1,2334)              100.05420     
    2217    (1,2335)              100.05469     
    2218    (1,2336)              99.984375     
    2219    (1,2337)              99.990723     
    2220    (1,2338)              99.990234     
    2221    (1,2339)              99.984131     
    2222    (1,2340)              99.984131     
    2223    (1,2341)              99.979248     
    2224    (1,2342)              24.996582     
    2225    (1,2343)              24.995117     
    2226    (1,2344)              24.996582     
    2227    (1,2345)              24.995605     
    2228    (1,2346)              99.968262     
    2229    (1,2347)              100.05469     
    2230    (1,2348)              100.05444     
    2231    (1,2349)              99.983887     
    2232    (1,2350)              99.984131     
    2233    (1,2351)              99.984863     
    2234    (1,2352)              99.983887     
    2235    (1,2353)              99.984863     
    2236    (1,2354)              99.991455     
    2237    (1,2355)              99.990967     
    2238    (1,2356)              100.05444     
    2239    (1,2357)              100.05420     
    2240    (1,2358)              100.00000     
    2241    (1,2359)              99.980957     
    2242    (1,2360)              24.995850     
    2243    (1,2361)              24.996338     
    2244    (1,2362)              24.996094     
    2245    (1,2363)              24.995605     
    2246    (1,2364)              25.031494     
    2247    (1,2365)              24.996094     
    2248    (1,2366)              24.996582     
    2249    (1,2367)              25.031250     
    2250    (1,2368)              24.995850     
    2251    (1,2369)              24.999512     
    2252    (1,2370)              24.999512     
    2253    (1,2371)              24.996094     
    2254    (1,2372)              24.995605     
    2255    (1,2373)              24.996094     
    2256    (1,2374)              24.995605     
    2257    (1,2375)              24.996094     
    2258    (1,2376)              24.995850     
    2259    (1,2377)              24.996582     
    2260    (1,2378)              24.995605     
    2261    (1,2379)              24.996094     
    2262    (1,2380)              100.03442     
    2263    (1,2381)              100.03589     
    2285    (1,2405)              99.983398     
    2286    (1,2406)              99.984131     
    2287    (1,2407)              99.984375     
    2288    (1,2408)              99.984375     
    2289    (1,2409)              99.983887     
    2290    (1,2410)              100.05518     
    2291    (1,2411)              100.05322     
    2292    (1,2412)              99.983887     
    2293    (1,2413)              99.983398     
    2294    (1,2414)              99.990234     
    2295    (1,2415)              99.991455     
    2296    (1,2416)              99.983643     
    2297    (1,2417)              99.984375     
    2298    (1,2418)              99.984863     
    2299    (1,2419)              100.05518     
    2300    (1,2420)              100.05396     
    2301    (1,2421)              99.983398     
    2302    (1,2422)              99.984375     
    2303    (1,2423)              99.984863     
    2304    (1,2424)              99.984131     
    2305    (1,2425)              99.985352     
    2306    (1,2426)              99.984619     
    2307    (1,2427)              99.984375     
    2308    (1,2428)              100.05542     
    2309    (1,2429)              100.06201     
    2310    (1,2430)              99.990967     
    2311    (1,2431)              99.983154     
    2312    (1,2432)              99.984375     
    2313    (1,2433)              99.964600     
    2314    (1,2434)              25.031494     
    2315    (1,2435)              24.995117     
    2316    (1,2436)              24.995850     
    2317    (1,2437)              25.030518     
    2318    (1,2438)              24.996826     
    2319    (1,2439)              24.995117     
    2320    (1,2440)              24.996582     
    2321    (1,2441)              24.996094     
    2322    (1,2442)              99.968994     
    2323    (1,2443)              99.983398     
    2324    (1,2444)              100.05542     
    2325    (1,2445)              100.05566     
    2326    (1,2446)              99.984131     
    2327    (1,2447)              99.983887     
    2328    (1,2448)              99.983887     
    2329    (1,2449)              99.990967     
    2330    (1,2450)              99.990967     
    2331    (1,2451)              99.984375     
    2332    (1,2452)              99.984619     
    2333    (1,2453)              100.03223     
    2334    (1,2454)              24.995850     
    2335    (1,2455)              24.995605     
    2336    (1,2456)              25.031738     
    2337    (1,2457)              24.995605     
    2338    (1,2458)              24.996826     
    2339    (1,2459)              24.995605     
    2340    (1,2460)              24.995361     
    2341    (1,2461)              24.997070     
    2342    (1,2462)              24.995605     
    2343    (1,2463)              24.996094     
    2344    (1,2464)              24.996338     
    2345    (1,2465)              24.995850     
    2346    (1,2466)              99.987305     
    2347    (1,2467)              100.00073     
    2348    (1,2468)              100.00024     
    2349    (1,2469)              100.00073     
    2350    (1,2470)              99.983398     
    2351    (1,2471)              100.05469     
    2367    (1,2489)              99.984131     
    2368    (1,2490)              99.983887     
    2369    (1,2491)              99.983643     
    2370    (1,2492)              99.984375     
    2371    (1,2493)              99.984131     
    2372    (1,2494)              100.05444     
    2373    (1,2495)              100.05347     
    2374    (1,2496)              99.991211     
    2375    (1,2497)              99.990479     
    2376    (1,2498)              99.984375     
    2377    (1,2499)              99.983643     
    2378    (1,2500)              99.984375     
    2379    (1,2501)              99.983887     
    2380    (1,2502)              99.984375     
    2381    (1,2503)              100.05542     
    2382    (1,2504)              100.05542     
    2383    (1,2505)              99.983643     
    2384    (1,2506)              99.984619     
    2385    (1,2507)              99.984619     
    2386    (1,2508)              99.984375     
    2387    (1,2509)              99.983643     
    2388    (1,2510)              99.982910     
    2389    (1,2511)              99.990479     
    2390    (1,2512)              100.06201     
    2391    (1,2513)              100.05469     
    2392    (1,2514)              99.984375     
    2393    (1,2515)              99.984375     
    2394    (1,2516)              99.965088     
    2395    (1,2517)              24.996826     
    2396    (1,2518)              24.997070     
    2397    (1,2519)              24.995850     
    2398    (1,2520)              24.995850     
    2399    (1,2521)              100.04102     
    2400    (1,2522)              99.984375     
    2401    (1,2523)              99.983887     
    2402    (1,2524)              99.983643     
    2403    (1,2525)              100.05566     
    2404    (1,2526)              100.05444     
    2405    (1,2527)              99.984375     
    2406    (1,2528)              99.990723     
    2407    (1,2529)              99.991699     
    2408    (1,2530)              99.984619     
    2409    (1,2531)              99.984131     
    2410    (1,2532)              100.00122     
    2411    (1,2533)              24.997314     
    2412    (1,2534)              24.995361     
    2413    (1,2535)              24.996094     
    2414    (1,2536)              24.996582     
    2415    (1,2537)              24.995605     
    2416    (1,2538)              25.031250     
    2417    (1,2539)              24.996582     
    2418    (1,2540)              24.995117     
    2419    (1,2541)              100.04053     
    2420    (1,2542)              99.967773     
    2421    (1,2543)              99.983887     
    2422    (1,2544)              99.983887     
    2423    (1,2545)              99.984375     
    2424    (1,2546)              99.983643     
    2425    (1,2547)              99.982910     
    2442    (1,2567)              99.983398     
    2443    (1,2568)              99.983643     
    2444    (1,2569)              99.983887     
    2445    (1,2570)              99.984619     
    2446    (1,2571)              99.984375     
    2447    (1,2572)              100.06250     
    2448    (1,2573)              100.06201     
    2449    (1,2574)              99.983398     
    2450    (1,2575)              99.983398     
    2451    (1,2576)              99.983643     
    2452    (1,2577)              99.983887     
    2453    (1,2578)              99.983154     
    2454    (1,2579)              99.984131     
    2455    (1,2580)              99.983887     
    2456    (1,2581)              100.05469     
    2457    (1,2582)              100.05444     
    2458    (1,2583)              99.984375     
    2459    (1,2584)              99.983154     
    2460    (1,2585)              99.984619     
    2461    (1,2586)              99.984131     
    2462    (1,2587)              99.991211     
    2463    (1,2588)              99.991455     
    2464    (1,2589)              99.984131     
    2465    (1,2590)              100.05469     
    2466    (1,2591)              100.05469     
    2467    (1,2592)              99.983887     
    2468    (1,2593)              99.963379     
    2469    (1,2594)              24.996094     
    2470    (1,2595)              24.999756     
    2471    (1,2596)              24.999512     
    2472    (1,2597)              24.996826     
    2473    (1,2598)              24.996094     
    2474    (1,2599)              24.995361     
    2475    (1,2600)              24.995605     
    2476    (1,2601)              24.995117     
    2477    (1,2602)              100.00098     
    2478    (1,2603)              99.983887     
    2479    (1,2604)              99.983643     
    2480    (1,2605)              99.983887     
    2481    (1,2606)              100.05469     
    2482    (1,2607)              100.06152     
    2483    (1,2608)              99.989990     
    2484    (1,2609)              99.983643     
    2485    (1,2610)              99.984863     
    2486    (1,2611)              99.984131     
    2487    (1,2612)              99.979492     
    2488    (1,2613)              24.996338     
    2489    (1,2614)              24.996094     
    2490    (1,2615)              24.996582     
    2491    (1,2616)              24.995361     
    2492    (1,2617)              99.988770     
    2493    (1,2618)              100.05640     
    2494    (1,2619)              100.05444     
    2495    (1,2620)              99.983887     
    2496    (1,2621)              99.984131     
    2497    (1,2622)              99.984375     
    2498    (1,2623)              99.983887     
    2510    (1,2637)              99.984131     
    2511    (1,2638)              99.983643     
    2512    (1,2639)              99.983643     
    2513    (1,2640)              99.989746     
    2514    (1,2641)              99.991455     
    2515    (1,2642)              100.05322     
    2516    (1,2643)              100.05396     
    2517    (1,2644)              99.983154     
    2518    (1,2645)              99.983643     
    2519    (1,2646)              99.984131     
    2520    (1,2647)              99.984131     
    2521    (1,2648)              99.983643     
    2522    (1,2649)              99.983887     
    2523    (1,2650)              99.983643     
    2524    (1,2651)              100.05396     
    2525    (1,2652)              100.05444     
    2526    (1,2653)              99.985107     
    2527    (1,2654)              99.983887     
    2528    (1,2655)              99.991455     
    2529    (1,2656)              99.990479     
    2530    (1,2657)              99.984375     
    2531    (1,2658)              99.984131     
    2532    (1,2659)              99.984375     
    2533    (1,2660)              100.05322     
    2534    (1,2661)              100.05444     
    2535    (1,2662)              99.982666     
    2536    (1,2663)              99.948242     
    2537    (1,2664)              24.996094     
    2538    (1,2665)              24.996338     
    2539    (1,2666)              24.996582     
    2540    (1,2667)              24.995605     
    2541    (1,2668)              100.01758     
    2542    (1,2669)              99.982666     
    2543    (1,2670)              99.982422     
    2544    (1,2671)              99.983887     
    2545    (1,2672)              99.991699     
    2546    (1,2673)              100.06226     
    2547    (1,2674)              100.05103     
    2548    (1,2675)              100.00122     
    2549    (1,2676)              100.00073     
    2550    (1,2677)              99.979736     
    2551    (1,2678)              25.031982     
    2552    (1,2679)              24.996582     
    2553    (1,2680)              24.996094     
    2554    (1,2681)              25.030273     
    2555    (1,2682)              24.997070     
    2556    (1,2683)              24.996094     
    2557    (1,2684)              24.995117     
    2558    (1,2685)              24.996338     
    2559    (1,2686)              99.968262     
    2560    (1,2687)              99.984863     
    2561    (1,2688)              100.05396     
    2562    (1,2689)              100.05493     
    2563    (1,2690)              99.983887     
    2564    (1,2691)              99.984375     
    2577    (1,2706)              99.983154     
    2578    (1,2707)              99.990479     
    2579    (1,2708)              99.989502     
    2580    (1,2709)              99.984619     
    2581    (1,2710)              99.983154     
    2582    (1,2711)              100.05420     
    2583    (1,2712)              100.05420     
    2584    (1,2713)              99.983398     
    2585    (1,2714)              99.983643     
    2586    (1,2715)              99.984375     
    2587    (1,2716)              99.983887     
    2588    (1,2717)              99.983643     
    2589    (1,2718)              99.984131     
    2590    (1,2719)              99.984619     
    2591    (1,2720)              100.05518     
    2592    (1,2721)              100.05371     
    2593    (1,2722)              99.990967     
    2594    (1,2723)              99.991455     
    2595    (1,2724)              99.983643     
    2596    (1,2725)              99.983643     
    2597    (1,2726)              99.985107     
    2598    (1,2727)              99.983887     
    2599    (1,2728)              99.985107     
    2600    (1,2729)              100.05322     
    2601    (1,2730)              100.05444     
    2602    (1,2731)              99.968262     
    2603    (1,2732)              24.996094     
    2604    (1,2733)              24.996094     
    2605    (1,2734)              24.996094     
    2606    (1,2735)              24.995117     
    2607    (1,2736)              24.995361     
    2608    (1,2737)              24.996826     
    2609    (1,2738)              24.994873     
    2610    (1,2739)              24.995605     
    2611    (1,2740)              100.02026     
    2612    (1,2741)              99.983398     
    2613    (1,2742)              99.990479     
    2614    (1,2743)              99.972412     
    2615    (1,2744)              99.979980     
    2616    (1,2745)              24.996338     
    2617    (1,2746)              25.031494     
    2618    (1,2747)              24.996338     
    2619    (1,2748)              24.996582     
    2620    (1,2749)              24.994873     
    2621    (1,2750)              24.995117     
    2622    (1,2751)              25.030762     
    2623    (1,2752)              24.994629     
    2624    (1,2753)              24.996826     
    2625    (1,2754)              24.995850     
    2626    (1,2755)              24.995361     
    2627    (1,2756)              24.996826     
    2628    (1,2757)              24.995850     
    2629    (1,2758)              24.996826     
    2630    (1,2759)              24.995605     
    2631    (1,2760)              24.994873     
    2632    (1,2761)              24.995605     
    2633    (1,2762)              24.995117     
    2634    (1,2763)              24.995850     
    2635    (1,2764)              24.994629     
    2636    (1,2765)              100.02271     
    2637    (1,2766)              99.983398     
    2638    (1,2767)              99.984131     
    2639    (1,2768)              99.984619     
    2640    (1,2769)              100.05493     
    2641    (1,2770)              100.05444     
    2655    (1,2786)              99.990967     
    2656    (1,2787)              99.983643     
    2657    (1,2788)              99.984863     
    2658    (1,2789)              99.983887     
    2659    (1,2790)              99.983887     
    2660    (1,2791)              100.05493     
    2661    (1,2792)              100.05542     
    2662    (1,2793)              99.983643     
    2663    (1,2794)              99.985352     
    2664    (1,2795)              99.985596     
    2665    (1,2796)              99.984619     
    2666    (1,2797)              99.984131     
    2667    (1,2798)              99.983887     
    2668    (1,2799)              99.984619     
    2669    (1,2800)              100.06152     
    2670    (1,2801)              100.06250     
    2671    (1,2802)              99.983887     
    2672    (1,2803)              99.984375     
    2673    (1,2804)              99.984863     
    2674    (1,2805)              99.983887     
    2675    (1,2806)              99.984375     
    2676    (1,2807)              99.984619     
    2677    (1,2808)              99.984863     
    2678    (1,2809)              100.05542     
    2679    (1,2810)              100.05469     
    2680    (1,2811)              99.949463     
    2681    (1,2812)              24.996826     
    2682    (1,2813)              24.997070     
    2683    (1,2814)              24.994873     
    2684    (1,2815)              24.996338     
    2685    (1,2816)              24.995850     
    2686    (1,2817)              24.996826     
    2687    (1,2818)              24.995117     
    2688    (1,2819)              24.995361     
    2689    (1,2820)              100.02417     
    2690    (1,2821)              100.02271     
    2691    (1,2822)              24.996094     
    2692    (1,2823)              24.996338     
    2693    (1,2824)              24.994873     
    2694    (1,2825)              24.995117     
    2695    (1,2826)              24.996094     
    2696    (1,2827)              24.996582     
    2697    (1,2828)              24.995850     
    2698    (1,2829)              24.994873     
    2699    (1,2830)              24.996582     
    2700    (1,2831)              24.997070     
    2701    (1,2832)              24.995605     
    2702    (1,2833)              24.995850     
    2703    (1,2834)              100.04004     
    2704    (1,2835)              100.03979     
    2705    (1,2836)              99.967041     
    2706    (1,2837)              99.967041     
    2707    (1,2838)              99.982666     
    2708    (1,2839)              99.983887     
    2709    (1,2840)              99.982666     
    2710    (1,2841)              99.982422     
    2711    (1,2842)              99.983398     
    2724    (1,2857)              99.984131     
    2725    (1,2858)              99.984375     
    2726    (1,2859)              99.984131     
    2727    (1,2860)              99.983643     
    2728    (1,2861)              99.984131     
    2729    (1,2862)              100.05518     
    2730    (1,2863)              100.05518     
    2731    (1,2864)              99.983398     
    2732    (1,2865)              99.983643     
    2733    (1,2866)              99.982910     
    2734    (1,2867)              99.983643     
    2735    (1,2868)              99.982910     
    2736    (1,2869)              99.991211     
    2737    (1,2870)              99.990479     
    2738    (1,2871)              100.05493     
    2740    (1,2873)              99.984131     
    2741    (1,2874)              99.984131     
    2742    (1,2875)              99.983643     
    2743    (1,2876)              99.985107     
    2744    (1,2877)              99.985107     
    2745    (1,2878)              99.985596     
    2746    (1,2879)              99.983643     
    2747    (1,2880)              100.05469     
    2748    (1,2881)              100.05518     
    2749    (1,2882)              99.947266     
    2750    (1,2883)              24.995850     
    2751    (1,2884)              24.995850     
    2752    (1,2885)              24.995605     
    2753    (1,2886)              25.000244     
    2754    (1,2887)              25.000244     
    2755    (1,2888)              24.996338     
    2756    (1,2889)              24.995361     
    2757    (1,2890)              24.995117     
    2758    (1,2891)              24.995850     
    2759    (1,2892)              24.996338     
    2760    (1,2893)              24.995361     
    2761    (1,2894)              24.994873     
    2762    (1,2895)              25.032471     
    2763    (1,2896)              24.996826     
    2764    (1,2897)              24.995605     
    2765    (1,2898)              25.031006     
    2766    (1,2899)              99.988281     
    2767    (1,2900)              100.00342     
    2768    (1,2901)              99.983887     
    2769    (1,2902)              100.05371     
    2770    (1,2903)              100.05371     
    2771    (1,2904)              99.984375     
    2772    (1,2905)              99.983887     
    2773    (1,2906)              99.983887     
    2774    (1,2907)              99.984131     
    2787    (1,2922)              99.985352     
    2788    (1,2923)              99.983643     
    2789    (1,2924)              99.982910     
    2790    (1,2925)              99.983398     
    2791    (1,2926)              99.983398     
    2792    (1,2927)              100.05493     
    2793    (1,2928)              100.05420     
    2794    (1,2929)              99.983643     
    2795    (1,2930)              99.983398     
    2796    (1,2931)              99.983643     
    2797    (1,2932)              99.991943     
    2806    (1,2941)              99.983154     
    2807    (1,2942)              99.983643     
    2808    (1,2943)              99.983643     
    2809    (1,2944)              99.983154     
    2810    (1,2945)              100.05493     
    2811    (1,2946)              100.06250     
    2812    (1,2947)              99.972412     
    2813    (1,2948)              99.968994     
    2814    (1,2949)              99.968262     
    2815    (1,2950)              99.968262     
    2816    (1,2951)              99.983643     
    2817    (1,2952)              99.984131     
    2818    (1,2953)              99.984131     
    2819    (1,2954)              99.984619     
    2820    (1,2955)              100.05518     
    2821    (1,2956)              100.05518     
    2822    (1,2957)              99.984619     
    2823    (1,2958)              99.983643     
    2824    (1,2959)              99.985107     
    2835    (1,2972)              99.984131     
    2836    (1,2973)              99.983887     
    2837    (1,2974)              99.985107     
    2838    (1,2975)              99.984619     
    2839    (1,2976)              99.983643     
    2840    (1,2977)              100.05444     
    2841    (1,2978)              100.05469     
    2842    (1,2979)              99.983887     
    2855    (1,2992)              99.983398     
    2856    (1,2993)              99.985352     
    2857    (1,2994)              99.991211     
    2858    (1,2995)              100.06201     
    2859    (1,2996)              100.05469     
    2860    (1,2997)              99.983398     
    2861    (1,2998)              99.983887     
    2862    (1,2999)              99.984619     
    2863    (1,3000)              99.984375     
    2864    (1,3001)              99.983643     
    2865    (1,3002)              99.984375     
    2866    (1,3003)              99.983887     
    2867    (1,3004)              99.983398     
    2868    (1,3005)              100.05347     
    2878    (1,3019)              99.984863     
    2879    (1,3020)              99.983887     
    2880    (1,3021)              99.984863     
    2881    (1,3022)              99.983643     
    2882    (1,3023)              99.983887     
    2883    (1,3024)              100.05469     
    2914    (1,3062)              99.983643     
    2915    (1,3063)              99.983643     
    2916    (1,3064)              99.983887     
    2917    (1,3065)              99.983398     
    2918    (1,3066)              99.991943     
    2930    (1,3098)              99.984863     
    2931    (1,3099)              99.984863     
    2932    (1,3100)              99.991943     
    2944    (1,3113)              99.984131     
    2945    (1,3114)              99.990723     
    2946    (1,3115)              99.990967     
 -----------------------------------------------



 UBDSV06 SAVING              SFR IN MODEL EXPERIMENTAL     PACKAGE EXPERIMENTAL    CONNECTED TO MODEL EXPERIMENTAL     PACKAGE SFR              ON UNIT   1019 AT TIME STEP      1, STRESS PERIOD      1

 SFR PACKAGE (SFR) FLOW RATES   PERIOD      1   STEP        1
 -----------------------------------------------
   NUMBER   CELLID                    RATE      
 -----------------------------------------------
     1      (2,2565)              0.0000000     
     2      (2,2563)             -4.1613765     
     3      (2,2561)             -38.281176     
     4      (2,2560)             -32.893768     
     5      (2,2557)             -10.562515     
     6      (2,2485)             -28.841467     
     7      (2,2484)             -31.818828     
     8      (2,2481)             -5.3987480     
     9      (2,2479)             -66.518166     
     10     (2,2478)             -37.373827     
     11     (2,2399)             -39.692841     
     12     (2,2396)             -22.424405     
     13     (2,2394)             -100.68513     
     14     (2,2393)             -8.8666710     
     15     (2,2304)             -180.68491     
     16     (2,2301)             -154.46560     
     17     (2,2300)             -18.463072     
     18     (2,2389)             -74.251553     
     19     (2,2386)             -107.92852     
     20     (2,2385)             -45.030120     
     21     (2,2296)             -131.16223     
     22     (2,2293)             -156.29376     
     23     (2,2292)             -152.43309     
     24     (2,2289)             -185.66204     
     25     (2,2288)             -56.325245     
     26     (2,2286)             -352.78923     
     27     (1,2283)             -513.94562     
     28     (1,2282)             -516.99960     
     29     (1,2279)             -546.57841     
     30     (1,2278)             -591.90230     
     31     (1,2275)             -155.27445     
     32     (1,2277)             -387.39339     
     33     (1,2276)             -457.03048     
     34     (1,2273)             -476.44029     
     35     (1,2272)             -299.71428     
     36     (1,2376)             -211.74799     
     37     (1,2373)             -350.70232     
     38     (1,2372)             -307.96039     
     39     (1,2369)             -254.01387     
     40     (1,2368)             -452.66820     
     41     (1,2370)             -38.611962     
     42     (1,2367)             -476.49398     
     43     (1,2366)             -515.76073     
     44     (1,2363)             -693.83607     
     45     (1,2362)             -826.32949     
     46     (1,2462)             -6.5074310     
     47     (1,2459)             -935.81267     
     48     (1,2458)             -359.53746     
     49     (1,2460)             -678.86570     
     50     (1,2457)             -643.79415     
     51     (1,2538)             -444.16862     
     52     (1,2537)             -858.83066     
     53     (1,2539)             -211.90519     
     54     (1,2536)             -762.06148     
     55     (1,2614)             -543.02469     
     56     (1,2613)             -395.90016     
     57     (1,2615)             -696.01254     
     58     (1,2682)             -693.57902     
     59     (1,2684)             -528.46348     
     60     (1,2681)             -402.80685     
     61     (1,2762)             -667.69744     
     62     (1,2761)             -301.39715     
     63     (1,2763)             -491.05066     
     64     (1,2760)             -628.26143     
     65     (1,2759)             -568.43042     
     66     (1,2756)             -572.31554     
     67     (1,2755)             -635.35166     
     68     (1,2752)             -633.16448     
     69     (1,2751)             -709.27372     
     70     (1,2748)             -43.621470     
     71     (1,2831)             -621.62180     
     72     (1,2830)             -591.80861     
     73     (1,2827)             -279.28279     
     74     (1,2829)             -396.64282     
     75     (1,2828)             -513.98485     
     76     (1,2825)             -521.37500     
     77     (1,2824)             -232.09584     
     78     (1,2895)             -381.02999     
     79     (1,2892)             -462.88544     
     80     (1,2891)             -447.64873     
     81     (1,2888)             -410.17224     
     82     (1,2887)             -552.54379     
     83     (1,2884)             -160.92039     
     84     (1,2819)             -526.28440     
     85     (1,2818)             -160.32417     
     86     (1,2816)             -546.33427     
     87     (1,2813)             -183.19259     
     88     (1,2739)             -601.89027     
     89     (1,2738)             -224.56024     
     90     (1,2736)             -767.07610     
     91     (1,2733)             -252.01553     
     92     (1,2667)             -844.35878     
     93     (1,2666)             -227.27420     
     94     (1,2664)             -843.41016     
     95     (1,2600)             -426.96593     
     96     (1,2597)             -750.61014     
     97     (1,2595)             -866.19210     
     98     (1,2520)             -317.10195     
     99     (1,2519)             -815.05321     
    100     (1,2517)             -832.39428     
    101     (1,2436)             -877.41967     
    102     (1,2434)             -633.94544     
    103     (1,2435)             -881.49781     
    104     (1,2438)             -351.06949     
    105     (1,2344)             -770.56412     
    106     (1,2342)             -554.07898     
    107     (1,2343)             -487.80057     
    108     (1,2251)             -835.70455     
    109     (1,2249)             -769.24514     
    110     (1,2183)             -870.61481     
    111     (1,2181)             -840.45338     
    112     (1,2114)             -850.57920     
    113     (1,2112)             -858.29444     
    114     (1,2044)             -506.40691     
    115     (1,2043)             -525.48883     
    116     (1,2041)             -858.50294     
    117     (1,1972)             -144.67494     
    118     (1,1969)             -827.90027     
    119     (1,1967)             -399.40948     
    120     (1,1966)             -542.76810     
    121     (1,1893)             -696.16114     
    122     (1,1894)             -168.41923     
    123     (1,1892)             -561.15179     
    124     (1,1895)             -620.60603     
    125     (1,1896)             -756.77631     
    126     (1,1819)             -190.61300     
    127     (1,1822)             -1081.9007     
    128     (1,1820)             -1085.4893     
    129     (1,1745)             -1510.5030     
    130     (1,1742)             -851.59548     
    131     (1,1741)             -673.44479     
    132     (1,1738)             -624.36532     
    133     (1,1737)             -333.78729     
    134     (1,1735)             -541.09527     
    135     (1,1732)             -177.80223     
    136     (1,1653)             -534.85842     
    137     (1,1651)             -548.07289     
    138     (1,1654)             -528.20792     
    139     (1,1655)             -808.53433     
    140     (1,1658)             -403.59903     
    141     (1,1548)             -1234.3185     
    142     (1,1546)             -1070.0309     
    143     (1,1543)             -951.27683     
    144     (1,1453)             -715.24722     
    145     (1,1452)             -1342.8023     
    146     (1,1449)             -1226.8027     
    147     (1,1448)             -500.79116     
    148     (1,1538)             -654.60820     
    149     (1,1535)             -965.58561     
    150     (1,1537)             -676.01242     
    151     (1,1647)             -528.07262     
    152     (1,1649)             -580.38625     
    153     (1,1648)             -602.44264     
    154     (1,1645)             -739.96484     
    155     (1,1644)             -623.18823     
    156     (1,1642)             -465.58602     
    157     (1,1639)             -950.67470     
    158     (1,1638)             -492.12023     
    159     (1,1640)             -661.24953     
    160     (1,1637)             -965.52360     
    161     (1,1636)             -946.04404     
    162     (1,1633)             -958.35249     
    163     (1,1632)             -973.83729     
    164     (1,1629)             -969.88112     
    165     (1,1628)             -957.00515     
    166     (1,1625)             -986.16069     
    167     (1,1624)             -1010.1484     
    168     (1,1621)             -1050.3979     
    169     (1,1620)             -1123.3384     
    170     (1,1617)             -810.96663     
    171     (1,1615)             -609.78758     
    172     (1,1614)             -1125.7700     
    173     (1,1611)             -888.18026     
    174     (1,1525)             -516.96506     
    175     (1,1524)             -1145.5543     
    176     (1,1521)             -941.62536     
    177     (1,1519)             -540.12152     
    178     (1,1518)             -1093.9562     
    179     (1,1515)             -1063.2724     
    180     (1,1431)             -1131.6720     
    181     (1,1429)             -987.60298     
    182     (1,1432)             -540.86017     
    183     (1,1353)             -894.02995     
    184     (1,1351)             -863.21508     
    185     (1,1274)             -877.51441     
    186     (1,1272)             -854.94957     
    187     (1,1194)             -1038.5916     
    188     (1,1192)             -1075.5909     
    189     (1,1189)             -208.40424     
    190     (1,1111)             -1224.0032     
    191     (1,1109)             -820.63256     
    192     (1,1108)             -575.16339     
    193     (1,1030)             -1106.0137     
    194     (1,1028)             -1070.4532     
    195     (1,950)              -302.34307     
    196     (1,947)              -1047.2733     
    197     (1,945)              -757.51355     
    198     (1,944)              -1079.6474     
    199     (1,866)              -522.57626     
    200     (1,863)              -1070.9376     
    201     (1,861)              -822.71685     
    202     (1,860)              -778.30564     
    203     (1,782)              -1071.3679     
    204     (1,779)              -433.24165     
    205     (1,777)              -1459.5926     
    206     (1,700)              -21.102423     
    207     (1,699)              -1453.4355     
    208     (1,697)              -268.70700     
    209     (1,694)              -1207.0197     
    210     (1,618)              -676.89653     
    211     (1,617)              -814.84763     
    212     (1,615)              -1032.3524     
    213     (1,612)              -543.83992     
    214     (1,537)              -1040.0587     
    215     (1,535)              -764.99723     
    216     (1,534)              -1169.2806     
    217     (1,531)              -27.844769     
    218     (1,457)              -1173.9531     
    219     (1,455)              -1029.7718     
    220     (1,382)              -527.19954     
    221     (1,381)              -984.78064     
    222     (1,378)              -933.55645     
    223     (1,377)              -1028.5335     
    224     (1,375)              -214.60785     
    225     (1,372)              -1129.2280     
    226     (1,371)              -467.01950     
    227     (1,299)              -801.35451     
    228     (1,296)              -1020.4251     
    229     (1,294)              -156.35578     
    230     (1,293)              -933.26786     
    231     (1,290)              -904.59992     
    232     (1,289)              -1043.0644     
    233     (1,286)              -184.37472     
    234     (1,250)              -832.44977     
    235     (1,249)              -1011.1235     
    236     (1,246)              -599.45769     
    237     (1,244)              -745.97991     
    238     (1,243)              -1109.2214     
    239     (1,209)              -532.14111     
    240     (1,206)              -1056.3234     
    241     (1,204)              -503.60569     
    242     (1,203)              -1006.3610     
    243     (1,171)              -487.07157     
    244     (1,168)              -1150.1108     
    245     (1,166)              -77.966016     
    246     (1,165)              -1252.9149     
    247     (1,135)              -76.597610     
    248     (1,132)              -1206.8109     
    249     (1,130)              -74.564628     
    250     (1,129)              -1176.6220     
    251     (1,101)              -72.184015     
    252     (1,98)               -1146.6955     
    253     (1,96)               -69.724663     
    254     (1,95)               -1112.2441     
    255     (1,69)               -66.943587     
    256     (1,66)               -1089.3322     
    257     (1,65)               -72.389773     
    258     (1,63)               -921.78495     
    259     (1,60)               -385.21514     
    260     (1,36)               -861.98040     
    261     (1,35)               -478.12576     
    262     (1,33)               -667.02661     
    263     (1,30)               -792.31232     
    264     (1,8)                -626.94102     
    265     (1,7)                -894.55215     
    266     (1,5)                -108.41835     
 -----------------------------------------------



 UBDSV06 SAVING     FLOW-JA-FACE IN MODEL EXPERIMENTAL     PACKAGE SFR             CONNECTED TO MODEL EXPERIMENTAL     PACKAGE SFR              ON UNIT   1015 AT TIME STEP      1, STRESS PERIOD      1
 UBDSV06 SAVING              GWF IN MODEL EXPERIMENTAL     PACKAGE SFR             CONNECTED TO MODEL EXPERIMENTAL     PACKAGE EXPERIMENTAL     ON UNIT   1015 AT TIME STEP      1, STRESS PERIOD      1
 UBDSV06 SAVING         RAINFALL IN MODEL EXPERIMENTAL     PACKAGE SFR             CONNECTED TO MODEL EXPERIMENTAL     PACKAGE SFR              ON UNIT   1015 AT TIME STEP      1, STRESS PERIOD      1
 UBDSV06 SAVING      EVAPORATION IN MODEL EXPERIMENTAL     PACKAGE SFR             CONNECTED TO MODEL EXPERIMENTAL     PACKAGE SFR              ON UNIT   1015 AT TIME STEP      1, STRESS PERIOD      1
 UBDSV06 SAVING           RUNOFF IN MODEL EXPERIMENTAL     PACKAGE SFR             CONNECTED TO MODEL EXPERIMENTAL     PACKAGE SFR              ON UNIT   1015 AT TIME STEP      1, STRESS PERIOD      1
 UBDSV06 SAVING       EXT-INFLOW IN MODEL EXPERIMENTAL     PACKAGE SFR             CONNECTED TO MODEL EXPERIMENTAL     PACKAGE SFR              ON UNIT   1015 AT TIME STEP      1, STRESS PERIOD      1
 UBDSV06 SAVING      EXT-OUTFLOW IN MODEL EXPERIMENTAL     PACKAGE SFR             CONNECTED TO MODEL EXPERIMENTAL     PACKAGE SFR              ON UNIT   1015 AT TIME STEP      1, STRESS PERIOD      1
 UBDSV06 SAVING          STORAGE IN MODEL EXPERIMENTAL     PACKAGE SFR             CONNECTED TO MODEL EXPERIMENTAL     PACKAGE SFR              ON UNIT   1015 AT TIME STEP      1, STRESS PERIOD      1
1
  HEAD IN LAYER   1 AT END OF TIME STEP   1 IN STRESS PERIOD    1
  ---------------------------------------------------------------------------

                1               2               3               4               5               6               7               8               9              10
               11              12              13              14              15              16              17              18              19              20
               21              22              23              24              25              26              27              28              29              30
               31              32              33              34              35              36              37              38              39              40
               41              42              43              44              45              46              47              48              49              50
               51              52              53              54              55              56              57              58              59              60
               61              62              63              64              65              66              67              68              69              70
               71              72              73              74              75              76              77              78              79              80
               81              82              83              84              85              86              87              88              89              90
               91              92              93              94              95              96              97              98              99             100
              101             102             103             104             105             106             107             108             109             110
              111             112             113             114             115             116             117             118             119             120
              121             122             123             124             125             126             127             128             129             130
              131             132             133             134             135             136             137             138             139             140
              141             142             143             144             145             146             147             148             149             150
              151             152             153             154             155             156             157             158             159             160
              161             162             163             164             165             166             167             168             169             170
              171             172             173             174             175             176             177             178             179             180
              181             182             183             184             185             186             187             188             189             190
              191             192             193             194             195             196             197             198             199             200
              201             202             203             204             205             206             207             208             209             210
              211             212             213             214             215             216             217             218             219             220
              221             222             223             224             225             226             227             228             229             230
              231             232             233             234             235             236             237             238             239             240
              241             242             243             244             245             246             247             248             249             250
              251             252             253             254             255             256             257             258             259             260
              261             262             263             264             265             266             267             268             269             270
              271             272             273             274             275             276             277             278             279             280
              281             282             283             284             285             286             287             288             289             290
              291             292             293             294             295             296             297             298             299             300
              301             302             303             304             305             306             307             308             309             310
              311             312             313             314             315             316             317             318             319             320
              321             322             323             324             325             326             327             328             329             330
              331             332             333             334             335             336             337             338             339             340
              341             342             343             344             345             346             347             348             349             350
              351             352             353             354             355             356             357             358             359             360
              361             362             363             364             365             366             367             368             369             370
              371             372             373             374             375             376             377             378             379             380
              381             382             383             384             385             386             387             388             389             390
              391             392             393             394             395             396             397             398             399             400
              401             402             403             404             405             406             407             408             409             410
              411             412             413             414             415             416             417             418             419             420
              421             422             423             424             425             426             427             428             429             430
              431             432             433             434             435             436             437             438             439             440
              441             442             443             444             445             446             447             448             449             450
              451             452             453             454             455             456             457             458             459             460
              461             462             463             464             465             466             467             468             469             470
              471             472             473             474             475             476             477             478             479             480
              481             482             483             484             485             486             487             488             489             490
              491             492             493             494             495             496             497             498             499             500
              501             502             503             504             505             506             507             508             509             510
              511             512             513             514             515             516             517             518             519             520
              521             522             523             524             525             526             527             528             529             530
              531             532             533             534             535             536             537             538             539             540
              541             542             543             544             545             546             547             548             549             550
              551             552             553             554             555             556             557             558             559             560
              561             562             563             564             565             566             567             568             569             570
              571             572             573             574             575             576             577             578             579             580
              581             582             583             584             585             586             587             588             589             590
              591             592             593             594             595             596             597             598             599             600
              601             602             603             604             605             606             607             608             609             610
              611             612             613             614             615             616             617             618             619             620
              621             622             623             624             625             626             627             628             629             630
              631             632             633             634             635             636             637             638             639             640
              641             642             643             644             645             646             647             648             649             650
              651             652             653             654             655             656             657             658             659             660
              661             662             663             664             665             666             667             668             669             670
              671             672             673             674             675             676             677             678             679             680
              681             682             683             684             685             686             687             688             689             690
              691             692             693             694             695             696             697             698             699             700
              701             702             703             704             705             706             707             708             709             710
              711             712             713             714             715             716             717             718             719             720
              721             722             723             724             725             726             727             728             729             730
              731             732             733             734             735             736             737             738             739             740
              741             742             743             744             745             746             747             748             749             750
              751             752             753             754             755             756             757             758             759             760
              761             762             763             764             765             766             767             768             769             770
              771             772             773             774             775             776             777             778             779             780
              781             782             783             784             785             786             787             788             789             790
              791             792             793             794             795             796             797             798             799             800
              801             802             803             804             805             806             807             808             809             810
              811             812             813             814             815             816             817             818             819             820
              821             822             823             824             825             826             827             828             829             830
              831             832             833             834             835             836             837             838             839             840
              841             842             843             844             845             846             847             848             849             850
              851             852             853             854             855             856             857             858             859             860
              861             862             863             864             865             866             867             868             869             870
              871             872             873             874             875             876             877             878             879             880
              881             882             883             884             885             886             887             888             889             890
              891             892             893             894             895             896             897             898             899             900
              901             902             903             904             905             906             907             908             909             910
              911             912             913             914             915             916             917             918             919             920
              921             922             923             924             925             926             927             928             929             930
              931             932             933             934             935             936             937             938             939             940
              941             942             943             944             945             946             947             948             949             950
              951             952             953             954             955             956             957             958             959             960
              961             962             963             964             965             966             967             968             969             970
              971             972             973             974             975             976             977             978             979             980
              981             982             983             984             985             986             987             988             989             990
              991             992             993             994             995             996             997             998             999            1000
             1001            1002            1003            1004            1005            1006            1007            1008            1009            1010
             1011            1012            1013            1014            1015            1016            1017            1018            1019            1020
             1021            1022            1023            1024            1025            1026            1027            1028            1029            1030
             1031            1032            1033            1034            1035            1036            1037            1038            1039            1040
             1041            1042            1043            1044            1045            1046            1047            1048            1049            1050
             1051            1052            1053            1054            1055            1056            1057            1058            1059            1060
             1061            1062            1063            1064            1065            1066            1067            1068            1069            1070
             1071            1072            1073            1074            1075            1076            1077            1078            1079            1080
             1081            1082            1083            1084            1085            1086            1087            1088            1089            1090
             1091            1092            1093            1094            1095            1096            1097            1098            1099            1100
             1101            1102            1103            1104            1105            1106            1107            1108            1109            1110
             1111            1112            1113            1114            1115            1116            1117            1118            1119            1120
             1121            1122            1123            1124            1125            1126            1127            1128            1129            1130
             1131            1132            1133            1134            1135            1136            1137            1138            1139            1140
             1141            1142            1143            1144            1145            1146            1147            1148            1149            1150
             1151            1152            1153            1154            1155            1156            1157            1158            1159            1160
             1161            1162            1163            1164            1165            1166            1167            1168            1169            1170
             1171            1172            1173            1174            1175            1176            1177            1178            1179            1180
             1181            1182            1183            1184            1185            1186            1187            1188            1189            1190
             1191            1192            1193            1194            1195            1196            1197            1198            1199            1200
             1201            1202            1203            1204            1205            1206            1207            1208            1209            1210
             1211            1212            1213            1214            1215            1216            1217            1218            1219            1220
             1221            1222            1223            1224            1225            1226            1227            1228            1229            1230
             1231            1232            1233            1234            1235            1236            1237            1238            1239            1240
             1241            1242            1243            1244            1245            1246            1247            1248            1249            1250
             1251            1252            1253            1254            1255            1256            1257            1258            1259            1260
             1261            1262            1263            1264            1265            1266            1267            1268            1269            1270
             1271            1272            1273            1274            1275            1276            1277            1278            1279            1280
             1281            1282            1283            1284            1285            1286            1287            1288            1289            1290
             1291            1292            1293            1294            1295            1296            1297            1298            1299            1300
             1301            1302            1303            1304            1305            1306            1307            1308            1309            1310
             1311            1312            1313            1314            1315            1316            1317            1318            1319            1320
             1321            1322            1323            1324            1325            1326            1327            1328            1329            1330
             1331            1332            1333            1334            1335            1336            1337            1338            1339            1340
             1341            1342            1343            1344            1345            1346            1347            1348            1349            1350
             1351            1352            1353            1354            1355            1356            1357            1358            1359            1360
             1361            1362            1363            1364            1365            1366            1367            1368            1369            1370
             1371            1372            1373            1374            1375            1376            1377            1378            1379            1380
             1381            1382            1383            1384            1385            1386            1387            1388            1389            1390
             1391            1392            1393            1394            1395            1396            1397            1398            1399            1400
             1401            1402            1403            1404            1405            1406            1407            1408            1409            1410
             1411            1412            1413            1414            1415            1416            1417            1418            1419            1420
             1421            1422            1423            1424            1425            1426            1427            1428            1429            1430
             1431            1432            1433            1434            1435            1436            1437            1438            1439            1440
             1441            1442            1443            1444            1445            1446            1447            1448            1449            1450
             1451            1452            1453            1454            1455            1456            1457            1458            1459            1460
             1461            1462            1463            1464            1465            1466            1467            1468            1469            1470
             1471            1472            1473            1474            1475            1476            1477            1478            1479            1480
             1481            1482            1483            1484            1485            1486            1487            1488            1489            1490
             1491            1492            1493            1494            1495            1496            1497            1498            1499            1500
             1501            1502            1503            1504            1505            1506            1507            1508            1509            1510
             1511            1512            1513            1514            1515            1516            1517            1518            1519            1520
             1521            1522            1523            1524            1525            1526            1527            1528            1529            1530
             1531            1532            1533            1534            1535            1536            1537            1538            1539            1540
             1541            1542            1543            1544            1545            1546            1547            1548            1549            1550
             1551            1552            1553            1554            1555            1556            1557            1558            1559            1560
             1561            1562            1563            1564            1565            1566            1567            1568            1569            1570
             1571            1572            1573            1574            1575            1576            1577            1578            1579            1580
             1581            1582            1583            1584            1585            1586            1587            1588            1589            1590
             1591            1592            1593            1594            1595            1596            1597            1598            1599            1600
             1601            1602            1603            1604            1605            1606            1607            1608            1609            1610
             1611            1612            1613            1614            1615            1616            1617            1618            1619            1620
             1621            1622            1623            1624            1625            1626            1627            1628            1629            1630
             1631            1632            1633            1634            1635            1636            1637            1638            1639            1640
             1641            1642            1643            1644            1645            1646            1647            1648            1649            1650
             1651            1652            1653            1654            1655            1656            1657            1658            1659            1660
             1661            1662            1663            1664            1665            1666            1667            1668            1669            1670
             1671            1672            1673            1674            1675            1676            1677            1678            1679            1680
             1681            1682            1683            1684            1685            1686            1687            1688            1689            1690
             1691            1692            1693            1694            1695            1696            1697            1698            1699            1700
             1701            1702            1703            1704            1705            1706            1707            1708            1709            1710
             1711            1712            1713            1714            1715            1716            1717            1718            1719            1720
             1721            1722            1723            1724            1725            1726            1727            1728            1729            1730
             1731            1732            1733            1734            1735            1736            1737            1738            1739            1740
             1741            1742            1743            1744            1745            1746            1747            1748            1749            1750
             1751            1752            1753            1754            1755            1756            1757            1758            1759            1760
             1761            1762            1763            1764            1765            1766            1767            1768            1769            1770
             1771            1772            1773            1774            1775            1776            1777            1778            1779            1780
             1781            1782            1783            1784            1785            1786            1787            1788            1789            1790
             1791            1792            1793            1794            1795            1796            1797            1798            1799            1800
             1801            1802            1803            1804            1805            1806            1807            1808            1809            1810
             1811            1812            1813            1814            1815            1816            1817            1818            1819            1820
             1821            1822            1823            1824            1825            1826            1827            1828            1829            1830
             1831            1832            1833            1834            1835            1836            1837            1838            1839            1840
             1841            1842            1843            1844            1845            1846            1847            1848            1849            1850
             1851            1852            1853            1854            1855            1856            1857            1858            1859            1860
             1861            1862            1863            1864            1865            1866            1867            1868            1869            1870
             1871            1872            1873            1874            1875            1876            1877            1878            1879            1880
             1881            1882            1883            1884            1885            1886            1887            1888            1889            1890
             1891            1892            1893            1894            1895            1896            1897            1898            1899            1900
             1901            1902            1903            1904            1905            1906            1907            1908            1909            1910
             1911            1912            1913            1914            1915            1916            1917            1918            1919            1920
             1921            1922            1923            1924            1925            1926            1927            1928            1929            1930
             1931            1932            1933            1934            1935            1936            1937            1938            1939            1940
             1941            1942            1943            1944            1945            1946            1947            1948            1949            1950
             1951            1952            1953            1954            1955            1956            1957            1958            1959            1960
             1961            1962            1963            1964            1965            1966            1967            1968            1969            1970
             1971            1972            1973            1974            1975            1976            1977            1978            1979            1980
             1981            1982            1983            1984            1985            1986            1987            1988            1989            1990
             1991            1992            1993            1994            1995            1996            1997            1998            1999            2000
             2001            2002            2003            2004            2005            2006            2007            2008            2009            2010
             2011            2012            2013            2014            2015            2016            2017            2018            2019            2020
             2021            2022            2023            2024            2025            2026            2027            2028            2029            2030
             2031            2032            2033            2034            2035            2036            2037            2038            2039            2040
             2041            2042            2043            2044            2045            2046            2047            2048            2049            2050
             2051            2052            2053            2054            2055            2056            2057            2058            2059            2060
             2061            2062            2063            2064            2065            2066            2067            2068            2069            2070
             2071            2072            2073            2074            2075            2076            2077            2078            2079            2080
             2081            2082            2083            2084            2085            2086            2087            2088            2089            2090
             2091            2092            2093            2094            2095            2096            2097            2098            2099            2100
             2101            2102            2103            2104            2105            2106            2107            2108            2109            2110
             2111            2112            2113            2114            2115            2116            2117            2118            2119            2120
             2121            2122            2123            2124            2125            2126            2127            2128            2129            2130
             2131            2132            2133            2134            2135            2136            2137            2138            2139            2140
             2141            2142            2143            2144            2145            2146            2147            2148            2149            2150
             2151            2152            2153            2154            2155            2156            2157            2158            2159            2160
             2161            2162            2163            2164            2165            2166            2167            2168            2169            2170
             2171            2172            2173            2174            2175            2176            2177            2178            2179            2180
             2181            2182            2183            2184            2185            2186            2187            2188            2189            2190
             2191            2192            2193            2194            2195            2196            2197            2198            2199            2200
             2201            2202            2203            2204            2205            2206            2207            2208            2209            2210
             2211            2212            2213            2214            2215            2216            2217            2218            2219            2220
             2221            2222            2223            2224            2225            2226            2227            2228            2229            2230
             2231            2232            2233            2234            2235            2236            2237            2238            2239            2240
             2241            2242            2243            2244            2245            2246            2247            2248            2249            2250
             2251            2252            2253            2254            2255            2256            2257            2258            2259            2260
             2261            2262            2263            2264            2265            2266            2267            2268            2269            2270
             2271            2272            2273            2274            2275            2276            2277            2278            2279            2280
             2281            2282            2283            2284            2285            2286            2287            2288            2289            2290
             2291            2292            2293            2294            2295            2296            2297            2298            2299            2300
             2301            2302            2303            2304            2305            2306            2307            2308            2309            2310
             2311            2312            2313            2314            2315            2316            2317            2318            2319            2320
             2321            2322            2323            2324            2325            2326            2327            2328            2329            2330
             2331            2332            2333            2334            2335            2336            2337            2338            2339            2340
             2341            2342            2343            2344            2345            2346            2347            2348            2349            2350
             2351            2352            2353            2354            2355            2356            2357            2358            2359            2360
             2361            2362            2363            2364            2365            2366            2367            2368            2369            2370
             2371            2372            2373            2374            2375            2376            2377            2378            2379            2380
             2381            2382            2383            2384            2385            2386            2387            2388            2389            2390
             2391            2392            2393            2394            2395            2396            2397            2398            2399            2400
             2401            2402            2403            2404            2405            2406            2407            2408            2409            2410
             2411            2412            2413            2414            2415            2416            2417            2418            2419            2420
             2421            2422            2423            2424            2425            2426            2427            2428            2429            2430
             2431            2432            2433            2434            2435            2436            2437            2438            2439            2440
             2441            2442            2443            2444            2445            2446            2447            2448            2449            2450
             2451            2452            2453            2454            2455            2456            2457            2458            2459            2460
             2461            2462            2463            2464            2465            2466            2467            2468            2469            2470
             2471            2472            2473            2474            2475            2476            2477            2478            2479            2480
             2481            2482            2483            2484            2485            2486            2487            2488            2489            2490
             2491            2492            2493            2494            2495            2496            2497            2498            2499            2500
             2501            2502            2503            2504            2505            2506            2507            2508            2509            2510
             2511            2512            2513            2514            2515            2516            2517            2518            2519            2520
             2521            2522            2523            2524            2525            2526            2527            2528            2529            2530
             2531            2532            2533            2534            2535            2536            2537            2538            2539            2540
             2541            2542            2543            2544            2545            2546            2547            2548            2549            2550
             2551            2552            2553            2554            2555            2556            2557            2558            2559            2560
             2561            2562            2563            2564            2565            2566            2567            2568            2569            2570
             2571            2572            2573            2574            2575            2576            2577            2578            2579            2580
             2581            2582            2583            2584            2585            2586            2587            2588            2589            2590
             2591            2592            2593            2594            2595            2596            2597            2598            2599            2600
             2601            2602            2603            2604            2605            2606            2607            2608            2609            2610
             2611            2612            2613            2614            2615            2616            2617            2618            2619            2620
             2621            2622            2623            2624            2625            2626            2627            2628            2629            2630
             2631            2632            2633            2634            2635            2636            2637            2638            2639            2640
             2641            2642            2643            2644            2645            2646            2647            2648            2649            2650
             2651            2652            2653            2654            2655            2656            2657            2658            2659            2660
             2661            2662            2663            2664            2665            2666            2667            2668            2669            2670
             2671            2672            2673            2674            2675            2676            2677            2678            2679            2680
             2681            2682            2683            2684            2685            2686            2687            2688            2689            2690
             2691            2692            2693            2694            2695            2696            2697            2698            2699            2700
             2701            2702            2703            2704            2705            2706            2707            2708            2709            2710
             2711            2712            2713            2714            2715            2716            2717            2718            2719            2720
             2721            2722            2723            2724            2725            2726            2727            2728            2729            2730
             2731            2732            2733            2734            2735            2736            2737            2738            2739            2740
             2741            2742            2743            2744            2745            2746            2747            2748            2749            2750
             2751            2752            2753            2754            2755            2756            2757            2758            2759            2760
             2761            2762            2763            2764            2765            2766            2767            2768            2769            2770
             2771            2772            2773            2774            2775            2776            2777            2778            2779            2780
             2781            2782            2783            2784            2785            2786            2787            2788            2789            2790
             2791            2792            2793            2794            2795            2796            2797            2798            2799            2800
             2801            2802            2803            2804            2805            2806            2807            2808            2809            2810
             2811            2812            2813            2814            2815            2816            2817            2818            2819            2820
             2821            2822            2823            2824            2825            2826            2827            2828            2829            2830
             2831            2832            2833            2834            2835            2836            2837            2838            2839            2840
             2841            2842            2843            2844            2845            2846            2847            2848            2849            2850
             2851            2852            2853            2854            2855            2856            2857            2858            2859            2860
             2861            2862            2863            2864            2865            2866            2867            2868            2869            2870
             2871            2872            2873            2874            2875            2876            2877            2878            2879            2880
             2881            2882            2883            2884            2885            2886            2887            2888            2889            2890
             2891            2892            2893            2894            2895            2896            2897            2898            2899            2900
             2901            2902            2903            2904            2905            2906            2907            2908            2909            2910
             2911            2912            2913            2914            2915            2916            2917            2918            2919            2920
             2921            2922            2923            2924            2925            2926            2927            2928            2929            2930
             2931            2932            2933            2934            2935            2936            2937            2938            2939            2940
             2941            2942            2943            2944            2945            2946            2947            2948            2949            2950
             2951            2952            2953            2954            2955            2956            2957            2958            2959            2960
             2961            2962            2963            2964            2965            2966            2967            2968            2969            2970
             2971            2972            2973            2974            2975            2976            2977            2978            2979            2980
             2981            2982            2983            2984            2985            2986            2987            2988            2989            2990
             2991            2992            2993            2994            2995            2996            2997            2998            2999            3000
             3001            3002            3003            3004            3005            3006            3007            3008            3009            3010
             3011            3012            3013            3014            3015            3016            3017            3018            3019            3020
             3021            3022            3023            3024            3025            3026            3027            3028            3029            3030
             3031            3032            3033            3034            3035            3036            3037            3038            3039            3040
             3041            3042            3043            3044            3045            3046            3047            3048            3049            3050
             3051            3052            3053            3054            3055            3056            3057            3058            3059            3060
             3061            3062            3063            3064            3065            3066            3067            3068            3069            3070
             3071            3072            3073            3074            3075            3076            3077            3078            3079            3080
             3081            3082            3083            3084            3085            3086            3087            3088            3089            3090
             3091            3092            3093            3094            3095            3096            3097            3098            3099            3100
             3101            3102            3103            3104            3105            3106            3107            3108            3109            3110
             3111            3112            3113            3114            3115            3116            3117            3118            3119            3120
             3121            3122            3123            3124            3125            3126            3127            3128            3129            3130
             3131            3132            3133            3134            3135
 ................................................................................................................................................................
   1      138.212         137.919         137.401         136.604         135.659         135.361         135.499         135.150         135.302         135.482    
          135.687         135.890         136.087         136.277         136.460         136.642         136.824         137.003         137.160         137.285    
          137.388         137.467         137.513         139.161         138.796         138.431         137.918         137.190         136.112         135.333    
          136.577         136.091         135.023         135.207         135.416         134.999         135.443         135.760         136.029         136.275    
          136.505         136.722         136.930         137.126         137.301         137.449         137.580         137.694         137.784         137.846    
          137.871         139.394         139.419         139.219         138.905         138.459         137.870         137.112         136.171         135.529    
          136.666         136.275         135.061         135.329         135.697         135.123         135.558         135.723         135.371         135.618    
          135.968         136.286         136.565         136.818         137.052         137.268         137.461         137.627         137.770         137.895    
          138.001         138.081         138.126         138.114         139.787         139.836         139.799         139.640         139.377         139.003    
          138.523         137.936         137.262         136.425         135.149         135.415         135.781         135.175         135.684         135.872    
          135.454         135.735         136.127         136.467         136.768         137.040         137.283         137.503         137.693         137.858    
          138.005         138.133         138.240         138.317         138.350         138.327         140.143         140.239         140.261         140.208    
          140.067         139.844         139.534         139.137         138.656         138.086         137.437         136.535         135.196         135.491    
          135.850         135.218         135.779         135.971         135.522         135.810         136.214         136.583         136.905         137.183    
          137.435         137.651         137.843         138.022         138.185         138.328         138.444         138.527         138.566         138.547    
          140.427         140.569         140.646         140.660         140.610         140.490         140.301         140.043         139.712         139.308    
          138.823         138.256         137.581         136.619         135.253         135.542         135.924         135.302         135.775         135.982    
          135.390         135.755         136.263         136.659         136.974         137.256         137.503         137.727         137.943         138.151    
          138.343         138.509         138.647         138.749         138.806         138.803         140.641         140.812         140.933         141.002    
          141.020         140.983         140.889         140.733         140.519         140.244         139.903         139.491         139.005         138.439    
          137.726         136.747         135.395         135.415         136.085         135.451         135.796         136.040         135.480         135.843    
          136.317         136.661         136.958         137.237         137.501         137.765         138.029         138.282         138.510         138.710    
          138.878         139.008         139.093         139.120         141.023         141.019         141.130         141.238         141.314         141.346    
          141.327         141.258         141.134         140.958         140.732         140.447         140.101         139.689         139.212         138.645    
          137.934         137.002         135.566         135.540         136.481         136.008         135.906         136.034         135.719         135.738    
          136.217         136.485         136.825         137.149         137.471         137.811         138.144         138.447         138.716         138.953    
          139.157         139.327         139.458         139.540         140.426         140.925         141.175         141.357         141.493         141.588    
          141.641         141.646         141.601         141.508         141.368         141.182         140.946         140.656         140.310         139.907    
          139.441         138.886         138.258         137.543         136.689         136.298         137.324         137.093         135.827         135.698    
          136.752         136.546         135.686         135.982         136.238         135.793         136.246         136.444         135.807         136.155    
          136.641         137.025         137.487         137.927         138.319         138.665         138.974         139.251         139.501         139.732    
          139.965         140.271         140.557         140.827         141.086         141.329         141.560         141.781         141.995         142.203    
          142.404         142.600         142.789         142.974         143.155         143.330         143.497         143.654         143.802         143.933    
          144.041         144.114         144.137         144.069         143.813         142.972         142.540         142.369         142.347       -1.000000E+30
        -1.000000E+30   -1.000000E+30   -1.000000E+30   -1.000000E+30   -1.000000E+30   -1.000000E+30   -1.000000E+30     140.462         140.962         141.300    
          141.542         141.716         141.835         141.908         141.938         141.919         141.857         141.749         141.597         141.402    
          141.157         140.865         140.522         140.131         139.683         139.182         138.663         138.138         137.611         137.012    
          136.093         135.747         136.700         136.390         135.993         136.174         135.774         135.700         136.350         136.557    
          135.709         136.001         137.008         137.641         138.132         138.558         138.938         139.285         139.606         139.909    
          140.209         140.523         140.825         141.115         141.391         141.651         141.900         142.140         142.374         142.601    
          142.826         143.048         143.265         143.482         143.696         143.905         144.107         144.302         144.484         144.648    
          144.789         144.904         144.980         145.004         144.974       -1.000000E+30   -1.000000E+30   -1.000000E+30   -1.000000E+30   -1.000000E+30
        -1.000000E+30   -1.000000E+30   -1.000000E+30   -1.000000E+30   -1.000000E+30   -1.000000E+30   -1.000000E+30   -1.000000E+30     140.529         141.046    
          141.427         141.711         141.920         142.066         142.158         142.207         142.214         142.179         142.102         141.982    
          141.821         141.615         141.366         141.074         140.740         140.367         139.954         139.512         139.052         138.567    
          138.048         137.458         136.796         136.121         135.647         136.423         135.764         136.482         137.293         137.889    
          138.392         138.844         139.258         139.642         140.004         140.352         140.689         141.007         141.314         141.604    
          141.878         142.142         142.397         142.645         142.890         143.133         143.372         143.612         143.853         144.092    
          144.328         144.558         144.780         144.990         145.182         145.353         145.502         145.620         145.704         145.747    
        -1.000000E+30   -1.000000E+30   -1.000000E+30   -1.000000E+30   -1.000000E+30   -1.000000E+30   -1.000000E+30   -1.000000E+30   -1.000000E+30   -1.000000E+30
        -1.000000E+30   -1.000000E+30   -1.000000E+30   -1.000000E+30     140.618         141.150         141.557         141.870         142.108         142.282    
          142.397         142.461         142.487         142.476         142.426         142.335         142.205         142.035         141.825         141.578    
          141.291         140.968         140.612         140.228         139.811         139.354         138.856         138.319         137.715         136.947    
          136.426         137.308         136.973         135.831         135.849         136.467         135.907         136.763         137.562         138.159    
          138.686         139.167         139.616         140.036         140.428         140.787         141.120         141.440         141.742         142.028    
          142.303         142.569         142.828         143.086         143.344         143.600         143.859         144.121         144.382         144.641    
          144.895         145.142         145.377         145.595         145.794         145.973         146.129         146.259         146.350       -1.000000E+30
        -1.000000E+30   -1.000000E+30   -1.000000E+30   -1.000000E+30   -1.000000E+30   -1.000000E+30   -1.000000E+30   -1.000000E+30   -1.000000E+30   -1.000000E+30
        -1.000000E+30   -1.000000E+30   -1.000000E+30   -1.000000E+30     140.715         141.261         141.687         142.023         142.284         142.480    
          142.620         142.706         142.746         142.751         142.722         142.659         142.558         142.420         142.244         142.034    
          141.788         141.506         141.189         140.843         140.465         140.037         139.560         139.034         138.457         137.766    
          136.927         136.299         137.272         136.857         135.997         136.485         136.194         136.183         137.110         137.850    
          138.455         139.004         139.530         140.022         140.453         140.828         141.174         141.502         141.813         142.107    
          142.391         142.665         142.934         143.202         143.472         143.744         144.022         144.303         144.585         144.866    
          145.143         145.413         145.673         145.916         146.141         146.349         146.538         146.710         146.888         147.157    
        -1.000000E+30   -1.000000E+30   -1.000000E+30   -1.000000E+30   -1.000000E+30   -1.000000E+30   -1.000000E+30   -1.000000E+30     150.151       -1.000000E+30
        -1.000000E+30   -1.000000E+30   -1.000000E+30   -1.000000E+30   -1.000000E+30     140.814         141.372         141.814         142.168         142.447    
          142.664         142.824         142.935         142.996         143.013         142.998         142.957         142.882         142.772         142.627    
          142.447         142.234         141.986         141.703         141.386         141.037         140.643         140.193         139.691         139.132    
          138.500         137.738         136.808         136.151         137.213         136.769         136.434         136.852         136.120         136.586    
          137.409         138.137         138.765         139.401         139.970         140.421         140.815         141.173         141.509         141.824    
          142.124         142.411         142.690         142.964         143.241         143.522         143.810         144.106         144.407         144.711    
          145.013         145.314         145.608         145.892         146.158         146.408         146.642         146.855         147.046         147.215    
          147.354       -1.000000E+30   -1.000000E+30     148.550       -1.000000E+30   -1.000000E+30   -1.000000E+30     149.753       -1.000000E+30     150.169    
          150.180       -1.000000E+30   -1.000000E+30   -1.000000E+30   -1.000000E+30   -1.000000E+30   -1.000000E+30     140.911         141.480         141.934    
          142.303         142.598         142.830         143.010         143.141         143.225         143.263         143.262         143.235         143.181    
          143.094         142.973         142.819         142.635         142.416         142.163         141.873         141.547         141.185         140.766    
          140.291         139.764         139.177         138.501         137.688         136.731         136.130         137.088         136.552         136.674    
          137.090         136.144         136.739         137.625         138.423         139.201         139.869         140.352         140.760         141.126    
          141.463         141.779         142.077         142.364         142.642         142.920         143.204         143.497         143.800         144.115    
          144.437         144.764         145.091         145.415         145.734         146.042         146.332         146.606         146.864         147.097    
          147.305         147.480         147.597       -1.000000E+30   -1.000000E+30   -1.000000E+30   -1.000000E+30   -1.000000E+30   -1.000000E+30   -1.000000E+30
          150.124         150.159         150.175       -1.000000E+30   -1.000000E+30   -1.000000E+30   -1.000000E+30   -1.000000E+30   -1.000000E+30   -1.000000E+30
          141.005         141.580         142.046         142.429         142.735         142.980         143.175         143.324         143.428         143.489    
          143.509         143.492         143.451         143.384         143.285         143.156         142.996         142.803         142.577         142.313    
          142.012         141.671         141.287         140.845         140.346         139.796         139.180         138.456         137.557         136.329    
          136.187         136.836         136.164         136.816         137.234         136.303         136.857         137.869         138.850         139.678    
          140.251         140.668         141.034         141.369         141.677         141.968         142.249         142.524         142.801         143.089    
          143.393         143.713         144.049         144.396         144.749         145.103         145.453         145.796         146.128         146.443    
          146.741         147.021         147.278         147.509         147.712         147.863       -1.000000E+30   -1.000000E+30   -1.000000E+30   -1.000000E+30
        -1.000000E+30     149.893         149.973         150.072         150.128         150.153       -1.000000E+30   -1.000000E+30   -1.000000E+30   -1.000000E+30
        -1.000000E+30   -1.000000E+30   -1.000000E+30     141.094         141.677         142.150         142.536         142.851         143.108         143.318    
          143.483         143.606         143.687         143.729         143.729         143.697         143.646         143.568         143.461         143.323    
          143.153         142.951         142.713         142.435         142.118         141.756         141.349         140.884         140.362         139.793    
          139.148         138.400         137.417         136.097         136.208         136.662         136.104         137.025         137.585         136.535    
          137.311         138.391         139.374         140.079         140.536         140.897         141.224         141.521         141.798         142.064    
          142.330         142.602         142.891         143.205         143.544         143.906         144.283         144.667         145.052         145.432    
          145.802         146.160         146.499         146.820         147.122         147.401         147.663         147.916         148.188         148.587    
          148.901         149.166         149.395         149.602         149.799         149.924         150.019         150.081         150.117       -1.000000E+30
        -1.000000E+30   -1.000000E+30   -1.000000E+30   -1.000000E+30   -1.000000E+30   -1.000000E+30     141.175         141.764         142.238         142.626    
          142.947         143.215         143.437         143.618         143.758         143.858         143.920         143.944         143.928         143.885    
          143.824         143.737         143.619         143.471         143.291         143.076         142.822         142.528         142.190         141.805    
          141.371         140.879         140.343         139.755         139.092         138.305         137.218         136.115         136.978         136.036    
          136.729         137.911         139.021         139.841         140.358         140.715         141.027         141.307         141.564         141.808    
          142.053         142.313         142.599         142.923         143.286         143.682         144.097         144.520         144.942         145.355    
          145.755         146.140         146.504         146.847         147.169         147.468         147.753         148.030         148.314         148.624    
          148.909         149.159         149.377         149.569         149.733         149.857         149.947         150.012         150.079       -1.000000E+30
        -1.000000E+30   -1.000000E+30   -1.000000E+30   -1.000000E+30   -1.000000E+30   -1.000000E+30     141.246         141.841         142.313         142.699    
          143.021         143.297         143.531         143.726         143.882         144.001         144.084         144.129         144.137         144.107    
          144.057         143.986         143.887         143.758         143.598         143.406         143.175         142.905         142.592         142.231    
          141.818         141.357         140.847         140.290         139.655         138.914         137.944         136.497         136.206         137.034    
          136.131         137.344         138.616         139.536         140.137         140.499         140.783         141.037         141.267         141.479    
          141.689         141.919         142.194         142.530         142.929         143.373         143.840         144.312         144.778         145.229    
          145.662         146.075         146.465         146.830         147.168         147.483         147.783         148.070         148.352         148.631    
          148.894         149.127         149.332         149.509         149.656         149.769         149.849         149.892       -1.000000E+30   -1.000000E+30
        -1.000000E+30   -1.000000E+30   -1.000000E+30   -1.000000E+30   -1.000000E+30   -1.000000E+30     141.309         141.917         142.375         142.748    
          143.069         143.351         143.597         143.806         143.979         144.116         144.219         144.287         144.318         144.311    
          144.272         144.214         144.131         144.020         143.878         143.705         143.497         143.250         142.962         142.625    
          142.239         141.800         141.323         140.787         140.168         139.433         138.543         137.511         136.693         137.731    
          137.094         136.252         137.207         136.217         137.172         138.274         139.214         139.856         140.233         140.487    
          140.713         140.915         141.082         141.238         141.412         141.652         142.001         142.458         142.977         143.514    
          144.048         144.567         145.062         145.531         145.973         146.387         146.771         147.125         147.453         147.762    
          148.053         148.331         148.596         148.843         149.064         149.256         149.421         149.557         149.662         149.737    
          149.771         149.743       -1.000000E+30   -1.000000E+30   -1.000000E+30   -1.000000E+30   -1.000000E+30   -1.000000E+30   -1.000000E+30     141.362    
          142.020         142.417         142.762         143.078         143.369         143.629         143.853         144.043         144.200         144.325    
          144.415         144.470         144.489         144.469         144.424         144.357         144.262         144.138         143.983         143.794    
          143.569         143.304         142.992         142.630         142.220         141.767         141.255         140.648         139.917         139.019    
          137.736         136.373         137.172         136.403         137.174         138.099         138.926         139.519         139.901         140.133    
          140.317         140.467         140.585         140.677         140.767         140.926         141.284         141.846         142.488         143.123    
          143.735         144.315         144.860         145.369         145.842         146.277         146.678         147.046         147.384         147.698    
          147.991         148.265         148.521         148.757         148.968         149.151         149.306         149.434         149.537         149.617    
          149.668         149.681       -1.000000E+30   -1.000000E+30   -1.000000E+30   -1.000000E+30   -1.000000E+30   -1.000000E+30   -1.000000E+30     142.268    
          142.409         142.711         143.032         143.338         143.617         143.862         144.073         144.252         144.400         144.514    
          144.593         144.638         144.646         144.619         144.567         144.489         144.382         144.244         144.075         143.870    
          143.626         143.336         142.993         142.611         142.186         141.697         141.107         140.377         139.425         137.876    
          136.404         137.149         136.408         137.137         137.936         138.617         139.114         139.461         139.663         139.768    
          139.824         139.855         139.851         139.823         139.881         140.245         141.001         141.887         142.675         143.381    
          144.033         144.632         145.181         145.684         146.142         146.559         146.937         147.282         147.598         147.892    
          148.164         148.413         148.639         148.840         149.015         149.162         149.284         149.387         149.479         149.566    
          149.603       -1.000000E+30   -1.000000E+30   -1.000000E+30   -1.000000E+30   -1.000000E+30   -1.000000E+30   -1.000000E+30     142.128         142.540    
          142.912         143.250         143.556         143.828         144.065         144.270         144.442         144.581         144.687         144.758    
          144.794         144.794         144.760         144.700         144.611         144.493         144.343         144.158         143.933         143.658    
          143.335         142.973         142.576         142.117         141.560         140.859         139.852         138.290         136.742         138.521    
          136.772         136.505         137.110         136.828         137.091         137.671         138.204         138.598         138.869         139.019    
          139.047         139.011         138.912         138.765         138.411         138.587         138.585         137.545         137.227         138.773    
          139.086         137.348         137.964         139.697         141.132         142.172         142.995         143.727         144.384         144.974    
          145.504         145.982         146.414         146.802         147.151         147.469         147.761         148.028         148.270         148.489    
          148.681         148.847         148.986         149.102         149.199         149.301         149.478         149.543       -1.000000E+30   -1.000000E+30
        -1.000000E+30   -1.000000E+30   -1.000000E+30   -1.000000E+30   -1.000000E+30     142.284         142.721         143.104         143.446         143.752    
          144.020         144.252         144.450         144.616         144.748         144.846         144.910         144.940         144.934         144.895    
          144.825         144.728         144.599         144.434         144.223         143.964         143.662         143.323         142.948         142.523    
          142.012         141.363         140.482         139.031         137.429         139.664         138.886         136.661         136.710         138.033    
          137.078         137.085         137.282         136.628         136.831         137.549         137.932         138.117         138.202         138.193    
          138.085         137.850         137.663         137.429         136.852         137.077         136.547         136.831         137.033         136.721    
          136.797         137.143         137.144         136.897         137.021         137.735         139.009         137.225         138.672         140.335    
          141.644         142.601         143.414         144.126         144.754         145.308         145.802         146.244         146.639         146.992    
          147.311         147.600         147.861         148.095         148.304         148.487         148.642         148.770         148.873         148.949    
          148.998       -1.000000E+30   -1.000000E+30   -1.000000E+30   -1.000000E+30   -1.000000E+30   -1.000000E+30   -1.000000E+30   -1.000000E+30   -1.000000E+30
          142.455         142.894         143.283         143.629         143.931         144.194         144.421         144.614         144.774         144.900    
          144.993         145.053         145.079         145.068         145.023         144.947         144.839         144.692         144.498         144.259    
          143.980         143.667         143.318         142.926         142.475         141.919         141.217         140.335         139.309         137.987    
          137.072         138.932         138.486         136.749         136.879         137.932         137.288         137.237         137.327         136.867    
          136.807         137.377         137.397         136.759         136.768         137.419         137.421         136.787         136.786         137.412    
          137.389         136.791         136.785         137.322         137.210         136.758         136.730         136.891         136.679         136.791    
          136.954         136.761         136.912         136.686         136.588         136.760         136.422         136.519         136.468         136.581    
          136.406         136.648         136.441         136.495         136.681         136.655         136.965         137.333         138.426         137.497    
          138.284         139.676         141.154         142.235         143.124         143.878         144.532         145.100         145.604         146.053    
          146.450         146.802         147.120         147.406         147.661         147.886         148.082         148.252         148.395         148.510    
          148.598         148.656         148.687       -1.000000E+30   -1.000000E+30   -1.000000E+30   -1.000000E+30   -1.000000E+30   -1.000000E+30   -1.000000E+30
        -1.000000E+30   -1.000000E+30     142.611         143.057         143.452         143.794         144.092         144.351         144.574         144.764    
          144.920         145.043         145.132         145.188         145.209         145.194         145.142         145.057         144.932         144.762    
          144.546         144.294         144.008         143.686         143.326         142.928         142.469         141.920         141.284         140.610    
          139.933         139.229         138.676         138.367         138.150         137.970         137.814         137.708         137.517         137.306    
          136.980         136.735         137.236         137.076         136.588         136.908         136.757         136.670         137.288         137.822    
          136.798         137.026         138.538         139.416         137.452         139.038         140.670         141.931         142.877         143.655    
          144.316         144.888         145.393         145.841         146.234         146.582         146.893         147.172         147.420         147.636    
          147.820         147.975         148.104         148.206         148.280         148.323         148.342       -1.000000E+30   -1.000000E+30   -1.000000E+30
        -1.000000E+30   -1.000000E+30   -1.000000E+30   -1.000000E+30   -1.000000E+30   -1.000000E+30     142.756         143.213         143.604         143.941    
          144.237         144.494         144.716         144.904         145.057         145.176         145.262         145.313         145.327         145.305    
          145.249         145.153         145.013         144.827         144.600         144.341         144.050         143.726         143.370         142.983    
          142.547         142.056         141.528         140.989         140.485         140.069         139.714         139.365         139.063         138.799    
          138.566         138.313         138.023         137.640         137.233         137.148         137.236         137.218         137.302         137.331    
          138.844         137.539         138.835         140.389         141.729         142.700         143.464         144.112         144.672         145.165    
          145.604         145.988         146.325         146.627         146.897         147.134         147.338         147.511         147.654         147.768    
          147.857         147.915         147.945         147.952       -1.000000E+30   -1.000000E+30   -1.000000E+30   -1.000000E+30   -1.000000E+30   -1.000000E+30
        -1.000000E+30   -1.000000E+30   -1.000000E+30     142.905         143.355         143.740         144.076         144.372         144.629         144.850    
          145.034         145.183         145.299         145.379         145.423         145.433         145.408         145.345         145.237         145.083    
          144.887         144.656         144.395         144.110         143.801         143.466         143.108         142.710         142.280         141.831    
          141.395         140.989         140.613         140.248         139.904         139.583         139.270         138.935         138.546         137.985    
          137.342         137.008         137.185         137.214         137.068         137.396         137.513         137.941         138.794         140.345    
          141.575         142.544         143.305         143.918         144.450         144.921         145.338         145.705         146.026         146.312    
          146.569         146.796         146.990         147.150         147.279         147.379         147.452         147.492         147.506         147.495    
        -1.000000E+30   -1.000000E+30   -1.000000E+30   -1.000000E+30   -1.000000E+30   -1.000000E+30   -1.000000E+30   -1.000000E+30   -1.000000E+30     143.040    
          143.480         143.865         144.203         144.501         144.757         144.974         145.153         145.298         145.408         145.483    
          145.524         145.530         145.499         145.426         145.309         145.148         144.948         144.717         144.463         144.194    
          143.911         143.609         143.278         142.915         142.529         142.138         141.751         141.371         140.993         140.618    
          140.251         139.879         139.485         139.040         138.416         137.409         137.302         137.808         137.390         137.716    
          138.218         137.713         138.271         139.134         140.372         141.464         142.377         143.123         143.716         144.212    
          144.655         145.043         145.381         145.677         145.942         146.179         146.392         146.576         146.725         146.840    
          146.925         146.979         147.004         146.994         146.930         146.702       -1.000000E+30   -1.000000E+30   -1.000000E+30   -1.000000E+30
        -1.000000E+30   -1.000000E+30   -1.000000E+30   -1.000000E+30     143.149         143.591         143.982         144.325         144.621         144.872    
          145.082         145.257         145.397         145.503         145.576         145.615         145.616         145.578         145.499         145.379    
          145.218         145.020         144.794         144.555         144.308         144.051         143.773         143.463         143.124         142.768    
          142.401         142.023         141.634         141.234         140.830         140.416         139.983         139.514         138.950         138.224    
          137.577         138.194         137.715         137.927         139.162         140.373         141.382         142.231         142.920         143.473    
          143.948         144.361         144.713         145.016         145.275         145.508         145.716         145.907         146.079         146.216    
          146.318         146.389         146.428         146.439         146.428         146.407         146.361       -1.000000E+30   -1.000000E+30   -1.000000E+30
        -1.000000E+30   -1.000000E+30   -1.000000E+30   -1.000000E+30   -1.000000E+30     143.238         143.694         144.096         144.439         144.724    
          144.966         145.171         145.342         145.482         145.589         145.660         145.695         145.692         145.650         145.570    
          145.451         145.293         145.099         144.885         144.667         144.442         144.206         143.940         143.640         143.313    
          142.965         142.594         142.201         141.783         141.347         140.892         140.419         139.924         139.369         138.706    
          138.079         137.736         138.196         137.716         139.098         140.366         141.319         142.082         142.706         143.222    
          143.663         144.035         144.345         144.602         144.813         144.998         145.166         145.322         145.473         145.599    
          145.698         145.761         145.778         145.766         145.744         145.786         145.880       -1.000000E+30   -1.000000E+30   -1.000000E+30
        -1.000000E+30   -1.000000E+30   -1.000000E+30   -1.000000E+30   -1.000000E+30     143.320         143.804         144.206         144.530         144.801    
          145.037         145.244         145.420         145.561         145.667         145.736         145.768         145.763         145.721         145.643    
          145.526         145.372         145.188         144.994         144.796         144.587         144.357         144.090         143.790         143.460    
          143.098         142.704         142.274         141.811         141.318         140.796         140.245         139.658         138.964         138.285    
          137.709         138.322         137.723         139.110         140.361         141.256         141.939         142.497         142.965         143.358    
          143.682         143.941         144.144         144.292         144.405         144.503         144.604         144.718         144.856         144.973    
          145.034         144.993         144.917         144.816         144.892         145.378       -1.000000E+30   -1.000000E+30   -1.000000E+30   -1.000000E+30
        -1.000000E+30   -1.000000E+30   -1.000000E+30   -1.000000E+30     143.442         143.934         144.298         144.600         144.867         145.104    
          145.316         145.493         145.634         145.740         145.807         145.838         145.833         145.793         145.717         145.605    
          145.459         145.293         145.117         144.930         144.725         144.487         144.209         143.896         143.543         143.149    
          142.710         142.225         141.695         141.120         140.481         139.772         138.981         138.355         137.807         138.287    
          137.845         139.180         140.349         141.175         141.792         142.287         142.702         143.039         143.309         143.511    
          143.646         143.720         143.740         143.738         143.743         143.814         143.996         144.128         144.192         144.286    
          144.253         143.816         143.686         144.183         144.034         143.648         143.669         143.790         143.739         143.818    
          143.831         143.701         143.680         143.789         143.762       -1.000000E+30   -1.000000E+30   -1.000000E+30   -1.000000E+30   -1.000000E+30
        -1.000000E+30   -1.000000E+30   -1.000000E+30   -1.000000E+30   -1.000000E+30   -1.000000E+30   -1.000000E+30   -1.000000E+30   -1.000000E+30   -1.000000E+30
        -1.000000E+30   -1.000000E+30   -1.000000E+30   -1.000000E+30   -1.000000E+30   -1.000000E+30   -1.000000E+30   -1.000000E+30   -1.000000E+30     143.643    
          144.047         144.382         144.673         144.934         145.172         145.383         145.561         145.705         145.810         145.877    
          145.907         145.904         145.866         145.793         145.685         145.550         145.398         145.234         145.048         144.831    
          144.573         144.274         143.929         143.538         143.095         142.594         142.034         141.402         140.659         139.747    
          138.667         137.946         138.113         137.887         138.526         139.401         140.363         141.061         141.607         142.054    
          142.417         142.702         142.919         143.062         143.123         143.106         143.008         142.843         142.651         142.847    
          142.967         142.044         142.176         143.152         143.264         142.481         142.730         143.257         143.433         143.164    
          143.388         143.517         143.562         143.550         143.632         143.639         143.753         143.730         143.798         143.865    
          143.951       -1.000000E+30   -1.000000E+30   -1.000000E+30   -1.000000E+30   -1.000000E+30   -1.000000E+30   -1.000000E+30   -1.000000E+30   -1.000000E+30
        -1.000000E+30   -1.000000E+30   -1.000000E+30   -1.000000E+30   -1.000000E+30   -1.000000E+30   -1.000000E+30   -1.000000E+30   -1.000000E+30   -1.000000E+30
        -1.000000E+30   -1.000000E+30   -1.000000E+30     143.770         144.143         144.462         144.744         145.002         145.236         145.446    
          145.632         145.777         145.879         145.943         145.974         145.971         145.935         145.864         145.762         145.635    
          145.491         145.324         145.126         144.886         144.599         144.262         143.873         143.433         142.927         142.350    
          141.682         140.843         139.603         138.032         137.732         137.857         138.152         138.080         138.806         138.551    
          138.992         139.621         140.337         140.921         141.400         141.787         142.095         142.329         142.498         142.592    
          142.591         142.466         142.174         142.080         141.896         141.555         141.163         141.609         141.486         141.194    
          141.693         142.052         142.377         142.180         142.464         142.840         143.312         143.625         143.825         143.953    
          144.020       -1.000000E+30   -1.000000E+30   -1.000000E+30   -1.000000E+30   -1.000000E+30   -1.000000E+30   -1.000000E+30   -1.000000E+30   -1.000000E+30
        -1.000000E+30   -1.000000E+30   -1.000000E+30   -1.000000E+30   -1.000000E+30   -1.000000E+30   -1.000000E+30     143.867         144.222         144.534    
          144.815         145.069         145.300         145.519         145.708         145.845         145.941         146.003         146.033         146.031    
          145.994         145.926         145.828         145.705         145.556         145.373         145.147         144.871         144.541         144.155    
          143.715         143.218         142.649         141.989         141.144         139.803         137.866         138.274         138.029         138.078    
          138.941         139.680         140.258         140.758         141.167         141.490         141.738         141.921         142.043         142.098    
          142.043         141.787         141.556         141.268         141.115         140.620         140.804         141.000         140.891         141.235    
          141.799         142.469         142.952         143.342         143.628         143.829         143.957       -1.000000E+30   -1.000000E+30   -1.000000E+30
        -1.000000E+30   -1.000000E+30   -1.000000E+30   -1.000000E+30   -1.000000E+30   -1.000000E+30   -1.000000E+30   -1.000000E+30   -1.000000E+30   -1.000000E+30
        -1.000000E+30   -1.000000E+30   -1.000000E+30   -1.000000E+30   -1.000000E+30     143.942         144.288         144.597         144.880         145.138    
          145.378         145.603         145.776         145.901         145.993         146.054         146.082         146.077         146.039         145.971    
          145.872         145.741         145.571         145.355         145.087         144.764         144.385         143.955         143.475         142.935    
          142.332         141.534         140.340         138.789         137.890         139.150         138.167         138.552         138.992         138.281    
          138.894         139.531         140.095         140.548         140.899         141.160         141.345         141.468         141.544         141.571    
          141.472         141.072         140.499         140.470         140.163         140.693         141.351         142.037         142.567         143.000    
          143.342         143.597         143.777       -1.000000E+30   -1.000000E+30   -1.000000E+30   -1.000000E+30   -1.000000E+30   -1.000000E+30   -1.000000E+30
        -1.000000E+30   -1.000000E+30   -1.000000E+30   -1.000000E+30   -1.000000E+30     143.997         144.336         144.650         144.943         145.214    
          145.464         145.671         145.825         145.945         146.036         146.095         146.120         146.111         146.069         145.995    
          145.882         145.726         145.520         145.259         144.937         144.564         144.150         143.695         143.196         142.659    
          141.960         140.971         139.645         138.242         138.729         138.757         138.386         139.248         139.849         140.277    
          140.575         140.764         140.867         140.899         140.914         140.916         140.808         140.668         140.455         140.363    
          140.040         140.045         140.801         140.186         140.886         141.553         142.152         142.627         143.010         143.306    
          143.519       -1.000000E+30   -1.000000E+30   -1.000000E+30   -1.000000E+30   -1.000000E+30   -1.000000E+30   -1.000000E+30   -1.000000E+30   -1.000000E+30
        -1.000000E+30   -1.000000E+30   -1.000000E+30   -1.000000E+30     144.018         144.367         144.696         145.008         145.289         145.528    
          145.714         145.864         145.984         146.073         146.128         146.148         146.133         146.081         145.987         145.844    
          145.651         145.396         145.065         144.688         144.292         143.868         143.411         142.932         142.342         141.545    
          140.571         139.493         138.890         139.965         139.555         138.654         139.092         139.089         138.908         139.532    
          139.951         140.179         140.264         140.245         140.330         140.284         139.938         139.770         140.191         140.144    
          139.386         139.310         140.137         140.151         139.318         139.399         140.128         140.097         139.495         139.558    
          139.925         139.923         139.884         140.431         141.004         141.740         142.256         142.669         142.990         143.224    
        -1.000000E+30   -1.000000E+30   -1.000000E+30   -1.000000E+30   -1.000000E+30   -1.000000E+30   -1.000000E+30   -1.000000E+30   -1.000000E+30   -1.000000E+30
        -1.000000E+30   -1.000000E+30   -1.000000E+30   -1.000000E+30     144.006         144.397         144.746         145.063         145.339         145.565    
          145.749         145.900         146.019         146.103         146.152         146.164         146.136         146.060         145.930         145.752    
          145.516         145.140         144.734         144.371         143.983         143.559         143.110         142.635         142.017         141.284    
          140.507         139.686         139.285         140.087         139.797         139.109         139.344         139.420         139.175         139.557    
          139.674         139.765         139.731         139.367         139.215         139.676         139.462         139.203         139.312         139.267    
          139.296         139.660         139.800         140.003         140.278         140.553         140.958         141.482         141.964         142.350    
          142.692         142.926       -1.000000E+30   -1.000000E+30   -1.000000E+30   -1.000000E+30   -1.000000E+30   -1.000000E+30   -1.000000E+30   -1.000000E+30
        -1.000000E+30   -1.000000E+30   -1.000000E+30   -1.000000E+30   -1.000000E+30     144.026         144.440         144.795         145.108         145.374    
          145.596         145.783         145.933         146.046         146.123         146.164         146.163         146.109         145.981         145.830    
          145.691       -1.000000E+30     144.620         144.377         144.035         143.636         143.196         142.813         142.329         141.749    
          141.166         140.575         139.898         139.509         140.268         140.065         139.134         139.126         139.877         139.805    
          139.136         139.164         139.754         139.766         139.294         139.606         139.823         139.925         139.986         140.336    
          140.667         140.934         141.193         141.473         141.812         142.131         142.352       -1.000000E+30   -1.000000E+30   -1.000000E+30
        -1.000000E+30   -1.000000E+30   -1.000000E+30   -1.000000E+30   -1.000000E+30   -1.000000E+30   -1.000000E+30   -1.000000E+30   -1.000000E+30   -1.000000E+30
          144.083         144.486         144.839         145.147         145.410         145.632         145.813         145.953         146.058         146.133    
          146.171         146.162       -1.000000E+30   -1.000000E+30   -1.000000E+30   -1.000000E+30   -1.000000E+30   -1.000000E+30   -1.000000E+30   -1.000000E+30
          143.109         142.841         142.455         142.031         141.571         141.128         140.719         140.452         140.345         140.386    
          140.561         140.809         141.058         141.295         141.522         141.744         141.989         142.228         142.385       -1.000000E+30
        -1.000000E+30   -1.000000E+30   -1.000000E+30   -1.000000E+30   -1.000000E+30   -1.000000E+30   -1.000000E+30   -1.000000E+30   -1.000000E+30   -1.000000E+30
          144.121         144.518         144.874         145.184         145.447         145.656         145.820         145.948         146.069       -1.000000E+30
        -1.000000E+30   -1.000000E+30   -1.000000E+30   -1.000000E+30   -1.000000E+30   -1.000000E+30   -1.000000E+30   -1.000000E+30   -1.000000E+30   -1.000000E+30
        -1.000000E+30     142.409         142.138         141.778         141.403         141.064         140.828         140.722         140.742         140.868    
          141.062         141.273         141.486         141.678         141.818       -1.000000E+30   -1.000000E+30   -1.000000E+30   -1.000000E+30   -1.000000E+30
        -1.000000E+30   -1.000000E+30   -1.000000E+30   -1.000000E+30   -1.000000E+30   -1.000000E+30   -1.000000E+30     144.112         144.540         144.911    
          145.222         145.458         145.636         145.767       -1.000000E+30   -1.000000E+30   -1.000000E+30   -1.000000E+30   -1.000000E+30   -1.000000E+30
        -1.000000E+30   -1.000000E+30   -1.000000E+30   -1.000000E+30   -1.000000E+30   -1.000000E+30   -1.000000E+30   -1.000000E+30   -1.000000E+30   -1.000000E+30
        -1.000000E+30   -1.000000E+30   -1.000000E+30   -1.000000E+30   -1.000000E+30   -1.000000E+30   -1.000000E+30   -1.000000E+30   -1.000000E+30   -1.000000E+30
        -1.000000E+30   -1.000000E+30   -1.000000E+30   -1.000000E+30   -1.000000E+30   -1.000000E+30   -1.000000E+30   -1.000000E+30   -1.000000E+30   -1.000000E+30
          144.106         144.585         144.970         145.217         145.402         145.623       -1.000000E+30   -1.000000E+30   -1.000000E+30   -1.000000E+30
        -1.000000E+30   -1.000000E+30   -1.000000E+30   -1.000000E+30   -1.000000E+30   -1.000000E+30   -1.000000E+30   -1.000000E+30   -1.000000E+30   -1.000000E+30
        -1.000000E+30   -1.000000E+30   -1.000000E+30   -1.000000E+30   -1.000000E+30   -1.000000E+30   -1.000000E+30   -1.000000E+30   -1.000000E+30   -1.000000E+30
        -1.000000E+30   -1.000000E+30   -1.000000E+30   -1.000000E+30   -1.000000E+30   -1.000000E+30     144.198         144.733         144.913         145.009    
        -1.000000E+30   -1.000000E+30   -1.000000E+30   -1.000000E+30   -1.000000E+30   -1.000000E+30   -1.000000E+30   -1.000000E+30   -1.000000E+30   -1.000000E+30
        -1.000000E+30   -1.000000E+30     144.711         144.527         144.516       -1.000000E+30   -1.000000E+30   -1.000000E+30   -1.000000E+30   -1.000000E+30
        -1.000000E+30   -1.000000E+30   -1.000000E+30   -1.000000E+30   -1.000000E+30     143.713         143.721       -1.000000E+30   -1.000000E+30   -1.000000E+30
        -1.000000E+30   -1.000000E+30   -1.000000E+30   -1.000000E+30   -1.000000E+30
1
  HEAD IN LAYER   2 AT END OF TIME STEP   1 IN STRESS PERIOD    1
  ---------------------------------------------------------------------------

                1               2               3               4               5               6               7               8               9              10
               11              12              13              14              15              16              17              18              19              20
               21              22              23              24              25              26              27              28              29              30
               31              32              33              34              35              36              37              38              39              40
               41              42              43              44              45              46              47              48              49              50
               51              52              53              54              55              56              57              58              59              60
               61              62              63              64              65              66              67              68              69              70
               71              72              73              74              75              76              77              78              79              80
               81              82              83              84              85              86              87              88              89              90
               91              92              93              94              95              96              97              98              99             100
              101             102             103             104             105             106             107             108             109             110
              111             112             113             114             115             116             117             118             119             120
              121             122             123             124             125             126             127             128             129             130
              131             132             133             134             135             136             137             138             139             140
              141             142             143             144             145             146             147             148             149             150
              151             152             153             154             155             156             157             158             159             160
              161             162             163             164             165             166             167             168             169             170
              171             172             173             174             175             176             177             178             179             180
              181             182             183             184             185             186             187             188             189             190
              191             192             193             194             195             196             197             198             199             200
              201             202             203             204             205             206             207             208             209             210
              211             212             213             214             215             216             217             218             219             220
              221             222             223             224             225             226             227             228             229             230
              231             232             233             234             235             236             237             238             239             240
              241             242             243             244             245             246             247             248             249             250
              251             252             253             254             255             256             257             258             259             260
              261             262             263             264             265             266             267             268             269             270
              271             272             273             274             275             276             277             278             279             280
              281             282             283             284             285             286             287             288             289             290
              291             292             293             294             295             296             297             298             299             300
              301             302             303             304             305             306             307             308             309             310
              311             312             313             314             315             316             317             318             319             320
              321             322             323             324             325             326             327             328             329             330
              331             332             333             334             335             336             337             338             339             340
              341             342             343             344             345             346             347             348             349             350
              351             352             353             354             355             356             357             358             359             360
              361             362             363             364             365             366             367             368             369             370
              371             372             373             374             375             376             377             378             379             380
              381             382             383             384             385             386             387             388             389             390
              391             392             393             394             395             396             397             398             399             400
              401             402             403             404             405             406             407             408             409             410
              411             412             413             414             415             416             417             418             419             420
              421             422             423             424             425             426             427             428             429             430
              431             432             433             434             435             436             437             438             439             440
              441             442             443             444             445             446             447             448             449             450
              451             452             453             454             455             456             457             458             459             460
              461             462             463             464             465             466             467             468             469             470
              471             472             473             474             475             476             477             478             479             480
              481             482             483             484             485             486             487             488             489             490
              491             492             493             494             495             496             497             498             499             500
              501             502             503             504             505             506             507             508             509             510
              511             512             513             514             515             516             517             518             519             520
              521             522             523             524             525             526             527             528             529             530
              531             532             533             534             535             536             537             538             539             540
              541             542             543             544             545             546             547             548             549             550
              551             552             553             554             555             556             557             558             559             560
              561             562             563             564             565             566             567             568             569             570
              571             572             573             574             575             576             577             578             579             580
              581             582             583             584             585             586             587             588             589             590
              591             592             593             594             595             596             597             598             599             600
              601             602             603             604             605             606             607             608             609             610
              611             612             613             614             615             616             617             618             619             620
              621             622             623             624             625             626             627             628             629             630
              631             632             633             634             635             636             637             638             639             640
              641             642             643             644             645             646             647             648             649             650
              651             652             653             654             655             656             657             658             659             660
              661             662             663             664             665             666             667             668             669             670
              671             672             673             674             675             676             677             678             679             680
              681             682             683             684             685             686             687             688             689             690
              691             692             693             694             695             696             697             698             699             700
              701             702             703             704             705             706             707             708             709             710
              711             712             713             714             715             716             717             718             719             720
              721             722             723             724             725             726             727             728             729             730
              731             732             733             734             735             736             737             738             739             740
              741             742             743             744             745             746             747             748             749             750
              751             752             753             754             755             756             757             758             759             760
              761             762             763             764             765             766             767             768             769             770
              771             772             773             774             775             776             777             778             779             780
              781             782             783             784             785             786             787             788             789             790
              791             792             793             794             795             796             797             798             799             800
              801             802             803             804             805             806             807             808             809             810
              811             812             813             814             815             816             817             818             819             820
              821             822             823             824             825             826             827             828             829             830
              831             832             833             834             835             836             837             838             839             840
              841             842             843             844             845             846             847             848             849             850
              851             852             853             854             855             856             857             858             859             860
              861             862             863             864             865             866             867             868             869             870
              871             872             873             874             875             876             877             878             879             880
              881             882             883             884             885             886             887             888             889             890
              891             892             893             894             895             896             897             898             899             900
              901             902             903             904             905             906             907             908             909             910
              911             912             913             914             915             916             917             918             919             920
              921             922             923             924             925             926             927             928             929             930
              931             932             933             934             935             936             937             938             939             940
              941             942             943             944             945             946             947             948             949             950
              951             952             953             954             955             956             957             958             959             960
              961             962             963             964             965             966             967             968             969             970
              971             972             973             974             975             976             977             978             979             980
              981             982             983             984             985             986             987             988             989             990
              991             992             993             994             995             996             997             998             999            1000
             1001            1002            1003            1004            1005            1006            1007            1008            1009            1010
             1011            1012            1013            1014            1015            1016            1017            1018            1019            1020
             1021            1022            1023            1024            1025            1026            1027            1028            1029            1030
             1031            1032            1033            1034            1035            1036            1037            1038            1039            1040
             1041            1042            1043            1044            1045            1046            1047            1048            1049            1050
             1051            1052            1053            1054            1055            1056            1057            1058            1059            1060
             1061            1062            1063            1064            1065            1066            1067            1068            1069            1070
             1071            1072            1073            1074            1075            1076            1077            1078            1079            1080
             1081            1082            1083            1084            1085            1086            1087            1088            1089            1090
             1091            1092            1093            1094            1095            1096            1097            1098            1099            1100
             1101            1102            1103            1104            1105            1106            1107            1108            1109            1110
             1111            1112            1113            1114            1115            1116            1117            1118            1119            1120
             1121            1122            1123            1124            1125            1126            1127            1128            1129            1130
             1131            1132            1133            1134            1135            1136            1137            1138            1139            1140
             1141            1142            1143            1144            1145            1146            1147            1148            1149            1150
             1151            1152            1153            1154            1155            1156            1157            1158            1159            1160
             1161            1162            1163            1164            1165            1166            1167            1168            1169            1170
             1171            1172            1173            1174            1175            1176            1177            1178            1179            1180
             1181            1182            1183            1184            1185            1186            1187            1188            1189            1190
             1191            1192            1193            1194            1195            1196            1197            1198            1199            1200
             1201            1202            1203            1204            1205            1206            1207            1208            1209            1210
             1211            1212            1213            1214            1215            1216            1217            1218            1219            1220
             1221            1222            1223            1224            1225            1226            1227            1228            1229            1230
             1231            1232            1233            1234            1235            1236            1237            1238            1239            1240
             1241            1242            1243            1244            1245            1246            1247            1248            1249            1250
             1251            1252            1253            1254            1255            1256            1257            1258            1259            1260
             1261            1262            1263            1264            1265            1266            1267            1268            1269            1270
             1271            1272            1273            1274            1275            1276            1277            1278            1279            1280
             1281            1282            1283            1284            1285            1286            1287            1288            1289            1290
             1291            1292            1293            1294            1295            1296            1297            1298            1299            1300
             1301            1302            1303            1304            1305            1306            1307            1308            1309            1310
             1311            1312            1313            1314            1315            1316            1317            1318            1319            1320
             1321            1322            1323            1324            1325            1326            1327            1328            1329            1330
             1331            1332            1333            1334            1335            1336            1337            1338            1339            1340
             1341            1342            1343            1344            1345            1346            1347            1348            1349            1350
             1351            1352            1353            1354            1355            1356            1357            1358            1359            1360
             1361            1362            1363            1364            1365            1366            1367            1368            1369            1370
             1371            1372            1373            1374            1375            1376            1377            1378            1379            1380
             1381            1382            1383            1384            1385            1386            1387            1388            1389            1390
             1391            1392            1393            1394            1395            1396            1397            1398            1399            1400
             1401            1402            1403            1404            1405            1406            1407            1408            1409            1410
             1411            1412            1413            1414            1415            1416            1417            1418            1419            1420
             1421            1422            1423            1424            1425            1426            1427            1428            1429            1430
             1431            1432            1433            1434            1435            1436            1437            1438            1439            1440
             1441            1442            1443            1444            1445            1446            1447            1448            1449            1450
             1451            1452            1453            1454            1455            1456            1457            1458            1459            1460
             1461            1462            1463            1464            1465            1466            1467            1468            1469            1470
             1471            1472            1473            1474            1475            1476            1477            1478            1479            1480
             1481            1482            1483            1484            1485            1486            1487            1488            1489            1490
             1491            1492            1493            1494            1495            1496            1497            1498            1499            1500
             1501            1502            1503            1504            1505            1506            1507            1508            1509            1510
             1511            1512            1513            1514            1515            1516            1517            1518            1519            1520
             1521            1522            1523            1524            1525            1526            1527            1528            1529            1530
             1531            1532            1533            1534            1535            1536            1537            1538            1539            1540
             1541            1542            1543            1544            1545            1546            1547            1548            1549            1550
             1551            1552            1553            1554            1555            1556            1557            1558            1559            1560
             1561            1562            1563            1564            1565            1566            1567            1568            1569            1570
             1571            1572            1573            1574            1575            1576            1577            1578            1579            1580
             1581            1582            1583            1584            1585            1586            1587            1588            1589            1590
             1591            1592            1593            1594            1595            1596            1597            1598            1599            1600
             1601            1602            1603            1604            1605            1606            1607            1608            1609            1610
             1611            1612            1613            1614            1615            1616            1617            1618            1619            1620
             1621            1622            1623            1624            1625            1626            1627            1628            1629            1630
             1631            1632            1633            1634            1635            1636            1637            1638            1639            1640
             1641            1642            1643            1644            1645            1646            1647            1648            1649            1650
             1651            1652            1653            1654            1655            1656            1657            1658            1659            1660
             1661            1662            1663            1664            1665            1666            1667            1668            1669            1670
             1671            1672            1673            1674            1675            1676            1677            1678            1679            1680
             1681            1682            1683            1684            1685            1686            1687            1688            1689            1690
             1691            1692            1693            1694            1695            1696            1697            1698            1699            1700
             1701            1702            1703            1704            1705            1706            1707            1708            1709            1710
             1711            1712            1713            1714            1715            1716            1717            1718            1719            1720
             1721            1722            1723            1724            1725            1726            1727            1728            1729            1730
             1731            1732            1733            1734            1735            1736            1737            1738            1739            1740
             1741            1742            1743            1744            1745            1746            1747            1748            1749            1750
             1751            1752            1753            1754            1755            1756            1757            1758            1759            1760
             1761            1762            1763            1764            1765            1766            1767            1768            1769            1770
             1771            1772            1773            1774            1775            1776            1777            1778            1779            1780
             1781            1782            1783            1784            1785            1786            1787            1788            1789            1790
             1791            1792            1793            1794            1795            1796            1797            1798            1799            1800
             1801            1802            1803            1804            1805            1806            1807            1808            1809            1810
             1811            1812            1813            1814            1815            1816            1817            1818            1819            1820
             1821            1822            1823            1824            1825            1826            1827            1828            1829            1830
             1831            1832            1833            1834            1835            1836            1837            1838            1839            1840
             1841            1842            1843            1844            1845            1846            1847            1848            1849            1850
             1851            1852            1853            1854            1855            1856            1857            1858            1859            1860
             1861            1862            1863            1864            1865            1866            1867            1868            1869            1870
             1871            1872            1873            1874            1875            1876            1877            1878            1879            1880
             1881            1882            1883            1884            1885            1886            1887            1888            1889            1890
             1891            1892            1893            1894            1895            1896            1897            1898            1899            1900
             1901            1902            1903            1904            1905            1906            1907            1908            1909            1910
             1911            1912            1913            1914            1915            1916            1917            1918            1919            1920
             1921            1922            1923            1924            1925            1926            1927            1928            1929            1930
             1931            1932            1933            1934            1935            1936            1937            1938            1939            1940
             1941            1942            1943            1944            1945            1946            1947            1948            1949            1950
             1951            1952            1953            1954            1955            1956            1957            1958            1959            1960
             1961            1962            1963            1964            1965            1966            1967            1968            1969            1970
             1971            1972            1973            1974            1975            1976            1977            1978            1979            1980
             1981            1982            1983            1984            1985            1986            1987            1988            1989            1990
             1991            1992            1993            1994            1995            1996            1997            1998            1999            2000
             2001            2002            2003            2004            2005            2006            2007            2008            2009            2010
             2011            2012            2013            2014            2015            2016            2017            2018            2019            2020
             2021            2022            2023            2024            2025            2026            2027            2028            2029            2030
             2031            2032            2033            2034            2035            2036            2037            2038            2039            2040
             2041            2042            2043            2044            2045            2046            2047            2048            2049            2050
             2051            2052            2053            2054            2055            2056            2057            2058            2059            2060
             2061            2062            2063            2064            2065            2066            2067            2068            2069            2070
             2071            2072            2073            2074            2075            2076            2077            2078            2079            2080
             2081            2082            2083            2084            2085            2086            2087            2088            2089            2090
             2091            2092            2093            2094            2095            2096            2097            2098            2099            2100
             2101            2102            2103            2104            2105            2106            2107            2108            2109            2110
             2111            2112            2113            2114            2115            2116            2117            2118            2119            2120
             2121            2122            2123            2124            2125            2126            2127            2128            2129            2130
             2131            2132            2133            2134            2135            2136            2137            2138            2139            2140
             2141            2142            2143            2144            2145            2146            2147            2148            2149            2150
             2151            2152            2153            2154            2155            2156            2157            2158            2159            2160
             2161            2162            2163            2164            2165            2166            2167            2168            2169            2170
             2171            2172            2173            2174            2175            2176            2177            2178            2179            2180
             2181            2182            2183            2184            2185            2186            2187            2188            2189            2190
             2191            2192            2193            2194            2195            2196            2197            2198            2199            2200
             2201            2202            2203            2204            2205            2206            2207            2208            2209            2210
             2211            2212            2213            2214            2215            2216            2217            2218            2219            2220
             2221            2222            2223            2224            2225            2226            2227            2228            2229            2230
             2231            2232            2233            2234            2235            2236            2237            2238            2239            2240
             2241            2242            2243            2244            2245            2246            2247            2248            2249            2250
             2251            2252            2253            2254            2255            2256            2257            2258            2259            2260
             2261            2262            2263            2264            2265            2266            2267            2268            2269            2270
             2271            2272            2273            2274            2275            2276            2277            2278            2279            2280
             2281            2282            2283            2284            2285            2286            2287            2288            2289            2290
             2291            2292            2293            2294            2295            2296            2297            2298            2299            2300
             2301            2302            2303            2304            2305            2306            2307            2308            2309            2310
             2311            2312            2313            2314            2315            2316            2317            2318            2319            2320
             2321            2322            2323            2324            2325            2326            2327            2328            2329            2330
             2331            2332            2333            2334            2335            2336            2337            2338            2339            2340
             2341            2342            2343            2344            2345            2346            2347            2348            2349            2350
             2351            2352            2353            2354            2355            2356            2357            2358            2359            2360
             2361            2362            2363            2364            2365            2366            2367            2368            2369            2370
             2371            2372            2373            2374            2375            2376            2377            2378            2379            2380
             2381            2382            2383            2384            2385            2386            2387            2388            2389            2390
             2391            2392            2393            2394            2395            2396            2397            2398            2399            2400
             2401            2402            2403            2404            2405            2406            2407            2408            2409            2410
             2411            2412            2413            2414            2415            2416            2417            2418            2419            2420
             2421            2422            2423            2424            2425            2426            2427            2428            2429            2430
             2431            2432            2433            2434            2435            2436            2437            2438            2439            2440
             2441            2442            2443            2444            2445            2446            2447            2448            2449            2450
             2451            2452            2453            2454            2455            2456            2457            2458            2459            2460
             2461            2462            2463            2464            2465            2466            2467            2468            2469            2470
             2471            2472            2473            2474            2475            2476            2477            2478            2479            2480
             2481            2482            2483            2484            2485            2486            2487            2488            2489            2490
             2491            2492            2493            2494            2495            2496            2497            2498            2499            2500
             2501            2502            2503            2504            2505            2506            2507            2508            2509            2510
             2511            2512            2513            2514            2515            2516            2517            2518            2519            2520
             2521            2522            2523            2524            2525            2526            2527            2528            2529            2530
             2531            2532            2533            2534            2535            2536            2537            2538            2539            2540
             2541            2542            2543            2544            2545            2546            2547            2548            2549            2550
             2551            2552            2553            2554            2555            2556            2557            2558            2559            2560
             2561            2562            2563            2564            2565            2566            2567            2568            2569            2570
             2571            2572            2573            2574            2575            2576            2577            2578            2579            2580
             2581            2582            2583            2584            2585            2586            2587            2588            2589            2590
             2591            2592            2593            2594            2595            2596            2597            2598            2599            2600
             2601            2602            2603            2604            2605            2606            2607            2608            2609            2610
             2611            2612            2613            2614            2615            2616            2617            2618            2619            2620
             2621            2622            2623            2624            2625            2626            2627            2628            2629            2630
             2631            2632            2633            2634            2635            2636            2637            2638            2639            2640
             2641            2642            2643            2644            2645            2646            2647            2648            2649            2650
             2651            2652            2653            2654            2655            2656            2657            2658            2659            2660
             2661            2662            2663            2664            2665            2666            2667            2668            2669            2670
             2671            2672            2673            2674            2675            2676            2677            2678            2679            2680
             2681            2682            2683            2684            2685            2686            2687            2688            2689            2690
             2691            2692            2693            2694            2695            2696            2697            2698            2699            2700
             2701            2702            2703            2704            2705            2706            2707            2708            2709            2710
             2711            2712            2713            2714            2715            2716            2717            2718            2719            2720
             2721            2722            2723            2724            2725            2726            2727            2728            2729            2730
             2731            2732            2733            2734            2735            2736            2737            2738            2739            2740
             2741            2742            2743            2744            2745            2746            2747            2748            2749            2750
             2751            2752            2753            2754            2755            2756            2757            2758            2759            2760
             2761            2762            2763            2764            2765            2766            2767            2768            2769            2770
             2771            2772            2773            2774            2775            2776            2777            2778            2779            2780
             2781            2782            2783            2784            2785            2786            2787            2788            2789            2790
             2791            2792            2793            2794            2795            2796            2797            2798            2799            2800
             2801            2802            2803            2804            2805            2806            2807            2808            2809            2810
             2811            2812            2813            2814            2815            2816            2817            2818            2819            2820
             2821            2822            2823            2824            2825            2826            2827            2828            2829            2830
             2831            2832            2833            2834            2835            2836            2837            2838            2839            2840
             2841            2842            2843            2844            2845            2846            2847            2848            2849            2850
             2851            2852            2853            2854            2855            2856            2857            2858            2859            2860
             2861            2862            2863            2864            2865            2866            2867            2868            2869            2870
             2871            2872            2873            2874            2875            2876            2877            2878            2879            2880
             2881            2882            2883            2884            2885            2886            2887            2888            2889            2890
             2891            2892            2893            2894            2895            2896            2897            2898            2899            2900
             2901            2902            2903            2904            2905            2906            2907            2908            2909            2910
             2911            2912            2913            2914            2915            2916            2917            2918            2919            2920
             2921            2922            2923            2924            2925            2926            2927            2928            2929            2930
             2931            2932            2933            2934            2935            2936            2937            2938            2939            2940
             2941            2942            2943            2944            2945            2946            2947            2948            2949            2950
             2951            2952            2953            2954            2955            2956            2957            2958            2959            2960
             2961            2962            2963            2964            2965            2966            2967            2968            2969            2970
             2971            2972            2973            2974            2975            2976            2977            2978            2979            2980
             2981            2982            2983            2984            2985            2986            2987            2988            2989            2990
             2991            2992            2993            2994            2995            2996            2997            2998            2999            3000
             3001            3002            3003            3004            3005            3006            3007            3008            3009            3010
             3011            3012            3013            3014            3015            3016            3017            3018            3019            3020
             3021            3022            3023            3024            3025            3026            3027            3028            3029            3030
             3031            3032            3033            3034            3035            3036            3037            3038            3039            3040
             3041            3042            3043            3044            3045            3046            3047            3048            3049            3050
             3051            3052            3053            3054            3055            3056            3057            3058            3059            3060
             3061            3062            3063            3064            3065            3066            3067            3068            3069            3070
             3071            3072            3073            3074            3075            3076            3077            3078            3079            3080
             3081            3082            3083            3084            3085            3086            3087            3088            3089            3090
             3091            3092            3093            3094            3095            3096            3097            3098            3099            3100
             3101            3102            3103            3104            3105            3106            3107            3108            3109            3110
             3111            3112            3113            3114            3115            3116            3117            3118            3119            3120
             3121            3122            3123            3124            3125            3126            3127            3128            3129            3130
             3131            3132            3133            3134            3135
 ................................................................................................................................................................
   1      138.477         138.220         137.795         137.252         136.786         136.535         136.830         136.573         136.269         136.100    
          136.085         136.164         136.297         136.458         136.632         136.811         136.989         137.163         137.322         137.459    
          137.573         137.663         137.721         139.124         138.811         138.478         138.046         137.513         136.978         136.693    
          137.130         136.900         136.448         136.313         136.623         136.415         136.191         136.151         136.221         136.356    
          136.525         136.710         136.900         137.085         137.259         137.417         137.556         137.677         137.779         137.866    
          137.965         139.638         139.417         139.153         138.834         138.430         137.943         137.390         136.868         136.617    
          137.079         136.879         136.409         136.308         136.618         136.469         136.250         136.234         136.352         136.298    
          136.282         136.399         136.569         136.762         136.962         137.158         137.342         137.506         137.653         137.784    
          137.899         138.002         138.098         138.193         140.096         139.922         139.742         139.518         139.234         138.876    
          138.446         137.959         137.439         136.925         136.506         136.395         136.672         136.549         136.357         136.356    
          136.450         136.413         136.427         136.571         136.760         136.966         137.172         137.367         137.544         137.705    
          137.852         137.985         138.106         138.216         138.316         138.413         140.479         140.350         140.228         140.085    
          139.897         139.653         139.343         138.970         138.541         138.065         137.554         137.022         136.605         136.504    
          136.774         136.657         136.479         136.484         136.567         136.535         136.561         136.719         136.917         137.124    
          137.326         137.516         137.694         137.863         138.021         138.168         138.303         138.425         138.537         138.648    
          140.774         140.691         140.621         140.540         140.430         140.278         140.073         139.809         139.488         139.114    
          138.686         138.207         137.682         137.143         136.724         136.624         136.901         136.783         136.597         136.602    
          136.685         136.652         136.686         136.848         137.035         137.229         137.425         137.618         137.811         137.999    
          138.181         138.350         138.507         138.652         138.787         138.922         140.978         140.939         140.916         140.889    
          140.843         140.765         140.646         140.478         140.257         139.984         139.662         139.286         138.853         138.366    
          137.835         137.295         136.865         136.755         137.066         136.948         136.733         136.740         136.849         136.813    
          136.824         136.950         137.103         137.286         137.485         137.697         137.919         138.141         138.355         138.555    
          138.742         138.919         139.089         139.261         141.099         141.095         141.114         141.137         141.147         141.132    
          141.084         140.996         140.863         140.682         140.453         140.178         139.854         139.475         139.041         138.557    
          138.035         137.514         137.074         136.959         137.327         137.217         136.928         136.910         137.108         137.027    
          136.947         137.000         137.135         137.317         137.534         137.785         138.051         138.314         138.564         138.802    
          139.028         139.247         139.469         139.703         141.029         141.119         141.202         141.281         141.347         141.391    
          141.406         141.386         141.328         141.228         141.084         140.895         140.663         140.386         140.060         139.682    
          139.257         138.791         138.309         137.850         137.430         137.275         137.712         137.596         137.163         137.089    
          137.433         137.330         137.043         137.031         137.205         137.142         137.059         137.086         137.098         137.095    
          137.166         137.347         137.612         137.919         138.230         138.533         138.823         139.102         139.376         139.659    
          139.971         140.386         140.734         141.043         141.328         141.600         141.860         142.109         142.349         142.583    
          142.812         143.037         143.258         143.473         143.682         143.886         144.083         144.275         144.458         144.624    
          144.772         144.892         144.977         145.019         145.012         144.961         144.948         145.059         145.403         146.218    
          146.773         147.191         147.520         147.779         147.990         148.160         148.257         141.078         141.187         141.318    
          141.442         141.546         141.621         141.664         141.671         141.641         141.571         141.461         141.309         141.116    
          140.880         140.600         140.276         139.907         139.501         139.070         138.638         138.229         137.865         137.531    
          137.240         137.155         137.407         137.323         137.130         137.135         137.209         137.175         137.189         137.253    
          137.166         137.212         137.425         137.762         138.114         138.462         138.802         139.132         139.457         139.785    
          140.119         140.470         140.802         141.110         141.396         141.670         141.932         142.186         142.432         142.673    
          142.909         143.144         143.376         143.603         143.826         144.045         144.257         144.462         144.655         144.834    
          144.997         145.132         145.239         145.314         145.371         145.451         145.543         145.717         146.029         146.500    
          146.935         147.305         147.614         147.864         148.070         148.240         148.349         148.428         141.157         141.281    
          141.441         141.599         141.735         141.840         141.909         141.941         141.936         141.894         141.812         141.693    
          141.535         141.336         141.097         140.819         140.502         140.146         139.763         139.364         138.961         138.562    
          138.164         137.781         137.460         137.248         137.209         137.360         137.284         137.311         137.611         137.977    
          138.357         138.737         139.113         139.486         139.854         140.208         140.551         140.881         141.189         141.477    
          141.754         142.020         142.279         142.533         142.783         143.030         143.279         143.526         143.769         144.010    
          144.248         144.480         144.704         144.916         145.116         145.299         145.458         145.592         145.703         145.801    
          145.912         146.043         146.232         146.499         146.837         147.184         147.505         147.795         148.038         148.242    
          148.392         148.472         148.513         148.565         141.252         141.388         141.570         141.753         141.915         142.046    
          142.142         142.197         142.215         142.195         142.139         142.048         141.920         141.755         141.552         141.312    
          141.038         140.727         140.385         140.019         139.634         139.231         138.814         138.387         137.972         137.590    
          137.445         137.770         137.648         137.359         137.343         137.503         137.425         137.498         137.833         138.222    
          138.630         139.046         139.463         139.872         140.251         140.604         140.940         141.251         141.543         141.823    
          142.092         142.357         142.618         142.878         143.138         143.400         143.663         143.924         144.185         144.443    
          144.697         144.943         145.177         145.401         145.608         145.793         145.955         146.096         146.223         146.346    
          146.483         146.670         146.908         147.184         147.476         147.768         148.056         148.307         148.545         148.633    
          148.636         148.630         148.634         148.645         141.356         141.501         141.700         141.903         142.088         142.242    
          142.360         142.439         142.477         142.478         142.444         142.377         142.276         142.140         141.968         141.762    
          141.523         141.250         140.944         140.608         140.244         139.852         139.433         138.992         138.536         138.084    
          137.703         137.562         137.863         137.740         137.502         137.527         137.606         137.574         137.711         138.067    
          138.483         138.929         139.390         139.841         140.248         140.618         140.963         141.281         141.577         141.859    
          142.131         142.399         142.669         142.938         143.210         143.486         143.764         144.044         144.325         144.605    
          144.881         145.150         145.407         145.655         145.888         146.097         146.285         146.455         146.613         146.761    
          146.880         147.062         147.295         147.530         147.788         148.076         148.390         148.670         149.111         149.003    
          148.863         148.771         148.706         148.664         148.637         141.462         141.616         141.827         142.047         142.251    
          142.425         142.563         142.662         142.722         142.743         142.730         142.683         142.604         142.493         142.349    
          142.172         141.964         141.723         141.448         141.140         140.799         140.424         140.014         139.573         139.105    
          138.622         138.150         137.780         137.666         137.923         137.814         137.661         137.710         137.714         137.723    
          137.904         138.297         138.764         139.269         139.759         140.198         140.588         140.945         141.269         141.569    
          141.852         142.124         142.396         142.671         142.948         143.231         143.521         143.815         144.115         144.417    
          144.720         145.019         145.310         145.591         145.863         146.120         146.353         146.564         146.757         146.933    
          147.090         147.224         147.420         147.702         147.870         148.109         148.409         148.806         149.028         149.434    
          149.445         149.099         148.897         148.766         148.677         148.619         148.575         141.566         141.727         141.949    
          142.183         142.402         142.593         142.748         142.866         142.946         142.988         142.994         142.964         142.905    
          142.814         142.694         142.543         142.362         142.149         141.901         141.620         141.303         140.948         140.555    
          140.125         139.661         139.168         138.664         138.185         137.843         137.753         137.952         137.849         137.772    
          137.844         137.767         137.815         138.074         138.545         139.093         139.631         140.104         140.514         140.881    
          141.211         141.513         141.795         142.067         142.340         142.617         142.900         143.193         143.497         143.809    
          144.129         144.455         144.781         145.104         145.419         145.722         146.018         146.298         146.554         146.787    
          147.002         147.196         147.367         147.518         147.712         147.942         148.161         148.410         148.705         149.029    
          149.402         149.623         149.583         149.212         148.963         148.793         148.674         148.592         148.534         148.490    
          141.667         141.832         142.063         142.309         142.541         142.745         142.915         143.050         143.147         143.209    
          143.233         143.222         143.179         143.107         143.007         142.879         142.722         142.533         142.311         142.055    
          141.762         141.429         141.057         140.646         140.193         139.704         139.188         138.665         138.170         137.837    
          137.792         137.922         137.841         137.874         137.988         137.831         137.933         138.285         138.863         139.455    
          139.967         140.398         140.772         141.105         141.407         141.687         141.954         142.223         142.500         142.787    
          143.089         143.407         143.739         144.083         144.434         144.786         145.134         145.473         145.800         146.119    
          146.420         146.697         146.953         147.191         147.409         147.607         147.787         147.995         148.221         148.455    
          148.716         149.069         149.354         149.592         149.680         149.592         149.229         148.967         148.779         148.644    
          148.549         148.487         148.453         141.761         141.930         142.167         142.421         142.663         142.879         143.062    
          143.212         143.326         143.404         143.448         143.455         143.429         143.374         143.292         143.183         143.047    
          142.882         142.684         142.451         142.181         141.871         141.521         141.131         140.698         140.223         139.709    
          139.172         138.630         138.123         137.855         137.871         137.915         137.882         138.027         138.209         137.956    
          138.147         138.608         139.238         139.792         140.244         140.622         140.952         141.249         141.524         141.784    
          142.043         142.312         142.601         142.912         143.247         143.602         143.972         144.353         144.735         145.111    
          145.476         145.827         146.166         146.488         146.786         147.064         147.325         147.571         147.810         148.052    
          148.291         148.526         148.760         148.996         149.243         149.469         149.622         149.643         149.526         149.177    
          148.918         148.726         148.585         148.486         148.422         148.391         141.847         142.019         142.261         142.519    
          142.768         142.993         143.188         143.351         143.480         143.575         143.636         143.662         143.655         143.617    
          143.552         143.462         143.344         143.199         143.023         142.814         142.568         142.282         141.954         141.586    
          141.174         140.718         140.216         139.679         139.119         138.563         138.084         137.948         138.071         137.962    
          138.042         138.390         139.002         139.583         140.052         140.433         140.756         141.041         141.302         141.549    
          141.794         142.051         142.336         142.657         143.012         143.395         143.798         144.212         144.628         145.036    
          145.432         145.808         146.167         146.506         146.824         147.121         147.400         147.666         147.926         148.182    
          148.428         148.663         148.887         149.097         149.296         149.462         149.551         149.536         149.397         149.073    
          148.827         148.641         148.502         148.403         148.339         148.309         141.923         142.100         142.342         142.602    
          142.855         143.086         143.291         143.466         143.609         143.721         143.799         143.843         143.855         143.836    
          143.788         143.715         143.616         143.489         143.332         143.143         142.919         142.657         142.353         142.006    
          141.615         141.178         140.692         140.163         139.596         139.008         138.435         138.065         138.024         138.164    
          138.065         138.225         138.777         139.354         139.833         140.205         140.512         140.778         141.018         141.241    
          141.465         141.705         141.982         142.311         142.693         143.115         143.560         144.016         144.471         144.915    
          145.343         145.748         146.126         146.480         146.813         147.126         147.419         147.697         147.966         148.224    
          148.467         148.697         148.909         149.098         149.261         149.378         149.422         149.378         149.180         148.928    
          148.708         148.533         148.399         148.301         148.239         148.208         141.989         142.175         142.415         142.670    
          142.921         143.156         143.369         143.555         143.713         143.840         143.936         143.999         144.030         144.031    
          144.001         143.945         143.863         143.754         143.615         143.444         143.240         143.000         142.718         142.393    
          142.023         141.603         141.132         140.610         140.041         139.432         138.803         138.318         138.149         138.407    
          138.249         138.123         138.235         138.145         138.241         138.592         139.126         139.587         139.942         140.226    
          140.461         140.666         140.852         141.039         141.250         141.515         141.856         142.276         142.753         143.256    
          143.765         144.268         144.754         145.215         145.648         146.048         146.417         146.761         147.083         147.386    
          147.673         147.946         148.203         148.442         148.662         148.861         149.031         149.167         149.252         149.273    
          149.223         149.068         148.790         148.574         148.405         148.275         148.182         148.121         148.091         142.039    
          142.258         142.483         142.722         142.965         143.200         143.419         143.617         143.788         143.932         144.046    
          144.128         144.179         144.201         144.192         144.154         144.090         143.998         143.877         143.725         143.540    
          143.319         143.059         142.756         142.403         141.998         141.541         141.029         140.459         139.830         139.162    
          138.499         138.201         138.239         138.235         138.249         138.470         138.912         139.319         139.638         139.887    
          140.085         140.240         140.369         140.501         140.664         140.906         141.265         141.744         142.302         142.885    
          143.465         144.025         144.557         145.054         145.516         145.940         146.324         146.675         147.003         147.311    
          147.603         147.877         148.133         148.367         148.578         148.763         148.916         149.028         149.091         149.101    
          149.043         148.899         148.632         148.424         148.261         148.137         148.046         147.985         147.955         142.391    
          142.552         142.758         142.986         143.217         143.441         143.648         143.833         143.994         144.127         144.231    
          144.304         144.347         144.360         144.343         144.298         144.224         144.121         143.987         143.821         143.620    
          143.381         143.096         142.761         142.372         141.932         141.436         140.871         140.225         139.504         138.718    
          138.295         138.256         138.343         138.282         138.377         138.693         139.018         139.284         139.479         139.622    
          139.711         139.771         139.835         139.935         140.144         140.525         141.091         141.767         142.456         143.121    
          143.748         144.330         144.866         145.357         145.800         146.197         146.558         146.892         147.205         147.497    
          147.771         148.024         148.254         148.457         148.629         148.768         148.863         148.909         148.907         148.842    
          148.703         148.451         148.255         148.100         147.980         147.889         147.830         147.799         142.608         142.782    
          142.988         143.210         143.435         143.650         143.850         144.028         144.181         144.307         144.403         144.469    
          144.505         144.512         144.487         144.433         144.348         144.233         144.085         143.905         143.684         143.416    
          143.100         142.732         142.314         141.839         141.291         140.653         139.898         139.118         138.736         139.318    
          138.894         138.437         138.328         138.583         138.418         138.327         138.478         138.688         138.872         138.996    
          139.066         139.093         139.093         139.088         139.103         139.404         139.542         139.033         139.132         139.762    
          139.971         139.339         139.636         140.334         141.177         141.995         142.751         143.446         144.082         144.657    
          145.177         145.639         146.046         146.414         146.753         147.069         147.362         147.635         147.886         148.108    
          148.305         148.469         148.597         148.678         148.711         148.691         148.609         148.470         148.238         148.058    
          147.914         147.800         147.712         147.654         147.624         142.822         142.989         143.192         143.410         143.630    
          143.841         144.035         144.208         144.355         144.474         144.564         144.625         144.655         144.655         144.623    
          144.559         144.463         144.335         144.173         143.970         143.721         143.425         143.082         142.690         142.242    
          141.728         141.127         140.416         139.633         139.184         139.907         139.567         138.802         138.569         139.150    
          138.876         138.425         138.349         138.619         138.457         138.331         138.378         138.451         138.500         138.516    
          138.498         138.454         138.422         138.535         138.560         138.303         138.298         138.646         138.776         138.372    
          138.499         138.979         139.259         138.694         138.968         139.628         139.982         139.327         139.770         140.610    
          141.548         142.392         143.146         143.825         144.432         144.974         145.453         145.873         146.247         146.591    
          146.910         147.204         147.473         147.717         147.933         148.120         148.277         148.395         148.466         148.487    
          148.438         148.299         148.150         147.982         147.832         147.702         147.594         147.508         147.454         147.428    
          143.017         143.179         143.377         143.592         143.808         144.015         144.205         144.372         144.515         144.630    
          144.716         144.772         144.798         144.790         144.749         144.674         144.567         144.424         144.241         144.012    
          143.741         143.425         143.061         142.649         142.180         141.643         141.027         140.335         139.648         139.006    
          138.728         139.353         139.143         138.527         138.414         138.878         138.695         138.346         138.304         138.505    
          138.417         138.284         138.270         138.331         138.295         138.267         138.259         138.253         138.233         138.253    
          138.241         138.206         138.189         138.223         138.200         138.164         138.143         138.164         138.139         138.115    
          138.098         138.125         138.120         138.063         138.047         138.113         138.122         138.035         138.048         138.189    
          138.299         138.101         138.191         138.482         138.747         138.356         138.603         139.102         139.529         138.943    
          139.371         140.158         141.155         142.073         142.877         143.582         144.204         144.759         145.250         145.678    
          146.057         146.404         146.723         147.018         147.284         147.517         147.723         147.900         148.044         148.150    
          148.213         148.221         148.155         147.997         147.851         147.710         147.580         147.463         147.362         147.284    
          147.231         147.205         143.194         143.349         143.546         143.760         143.973         144.175         144.360         144.525    
          144.665         144.777         144.860         144.911         144.930         144.912         144.861         144.777         144.657         144.497    
          144.293         144.047         143.761         143.433         143.060         142.643         142.175         141.652         141.087         140.519    
          139.973         139.484         139.071         138.796         138.621         138.478         138.367         138.270         138.168         138.101    
          138.104         138.162         138.144         138.187         138.286         138.498         138.279         138.431         138.804         139.193    
          138.699         139.042         139.663         140.075         139.471         139.968         140.827         141.799         142.638         143.357    
          143.989         144.546         145.034         145.461         145.842         146.188         146.507         146.799         147.061         147.286    
          147.477         147.640         147.767         147.856         147.909         147.909         147.837         147.671         147.530         147.402    
          147.285         147.181         147.094         147.029         146.977         146.945         143.353         143.508         143.703         143.913    
          144.121         144.322         144.507         144.670         144.807         144.916         144.994         145.038         145.047         145.022    
          144.963         144.869         144.735         144.559         144.341         144.086         143.795         143.467         143.102         142.699    
          142.257         141.786         141.309         140.844         140.400         139.997         139.657         139.385         139.131         138.906    
          138.708         138.529         138.377         138.292         138.378         138.673         138.974         138.669         138.960         139.367    
          139.846         139.360         139.776         140.615         141.599         142.441         143.158         143.782         144.324         144.798    
          145.220         145.595         145.935         146.253         146.539         146.794         147.010         147.188         147.333         147.440    
          147.512         147.556         147.550         147.473         147.307         147.170         147.048         146.941         146.850         146.777    
          146.726         146.686         146.659         143.507         143.657         143.846         144.051         144.259         144.460         144.643    
          144.805         144.940         145.043         145.113         145.150         145.154         145.122         145.055         144.950         144.803    
          144.618         144.396         144.142         143.857         143.541         143.196         142.821         142.425         142.018         141.614    
          141.210         140.814         140.437         140.101         139.789         139.480         139.201         138.943         138.703         138.504    
          138.439         138.491         138.495         138.563         138.686         138.977         138.749         139.029         139.573         140.530    
          141.461         142.281         142.979         143.575         144.093         144.545         144.953         145.313         145.638         145.944    
          146.224         146.468         146.673         146.839         146.967         147.057         147.116         147.147         147.137         147.061    
          146.906         146.767         146.654         146.556         146.478         146.421         146.383         146.355         146.340         143.648    
          143.790         143.973         144.178         144.388         144.589         144.771         144.929         145.058         145.156         145.221    
          145.252         145.249         145.210         145.135         145.022         144.872         144.686         144.469         144.224         143.952    
          143.656         143.337         143.001         142.652         142.294         141.924         141.542         141.144         140.766         140.409    
          140.049         139.703         139.374         139.059         138.774         138.607         138.646         138.705         138.734         138.821    
          139.090         138.887         139.135         139.625         140.489         141.360         142.137         142.803         143.363         143.847    
          144.272         144.656         144.993         145.292         145.572         145.834         146.068         146.260         146.415         146.530    
          146.611         146.662         146.680         146.663         146.597         146.472         146.319         146.205         146.120         146.059    
          146.022         146.003         145.990         145.982         143.770         143.907         144.091         144.299         144.509         144.708    
          144.886         145.038         145.162         145.254         145.314         145.340         145.331         145.287         145.209         145.095    
          144.946         144.767         144.561         144.331         144.078         143.806         143.518         143.216         142.902         142.562    
          142.196         141.801         141.400         141.010         140.608         140.206         139.808         139.432         139.097         138.893    
          138.959         139.173         139.006         139.193         139.651         140.455         141.267         141.989         142.610         143.138    
          143.582         143.973         144.324         144.626         144.890         145.135         145.365         145.580         145.763         145.912    
          146.024         146.104         146.149         146.159         146.136         146.077         145.977         145.802         145.682         145.615    
          145.583         145.578         145.590         145.600         145.600         143.878         144.016         144.206         144.414         144.621    
          144.814         144.985         145.133         145.252         145.340         145.395         145.416         145.404         145.359         145.281    
          145.171         145.030         144.863         144.672         144.459         144.229         143.982         143.719         143.443         143.139    
          142.795         142.406         141.992         141.573         141.137         140.697         140.245         139.796         139.394         139.111    
          139.077         139.214         139.120         139.234         139.662         140.426         141.173         141.840         142.411         142.893    
          143.301         143.652         143.956         144.214         144.435         144.634         144.829         145.016         145.189         145.339    
          145.452         145.532         145.567         145.562         145.531         145.475         145.384         145.187         145.080         145.037    
          145.045         145.090         145.145         145.187         145.203         143.980         144.129         144.322         144.523         144.721    
          144.906         145.073         145.217         145.331         145.415         145.466         145.485         145.473         145.430         145.357    
          145.256         145.127         144.974         144.799         144.604         144.392         144.161         143.916         143.643         143.326    
          142.959         142.543         142.101         141.633         141.136         140.627         140.118         139.645         139.275         139.172    
          139.253         139.206         139.277         139.672         140.395         141.082         141.694         142.214         142.645         143.008    
          143.310         143.560         143.766         143.940         144.092         144.243         144.391         144.551         144.701         144.830    
          144.911         144.931         144.909         144.840         144.741         144.607         144.435         144.380         144.373         144.433    
          144.565         144.681         144.767         144.810         144.102         144.257         144.438         144.626         144.812         144.990    
          145.151         145.290         145.401         145.482         145.532         145.551         145.541         145.503         145.438         145.347    
          145.230         145.089         144.927         144.746         144.541         144.317         144.069         143.776         143.433         143.026    
          142.569         142.066         141.520         140.943         140.372         139.823         139.385         139.254         139.312         139.279    
          139.342         139.695         140.362         140.994         141.541         142.003         142.385         142.703         142.950         143.143    
          143.298         143.421         143.521         143.611         143.714         143.849         144.024         144.189         144.303         144.449    
          144.469         144.221         144.211         144.460         144.432         144.209         144.192         144.370         144.307         144.150    
          144.093         144.191         143.997         143.972         143.806         143.546         143.736         143.496         143.331         143.751    
          143.758         143.296         143.294         143.771         143.810         143.333         143.462         143.813         143.794         143.459    
          143.345         143.838         143.943         143.367         143.655         144.028         144.229         144.362         144.432         144.254    
          144.384         144.544         144.719         144.895         145.066         145.222         145.357         145.466         145.546         145.595    
          145.616         145.610         145.578         145.522         145.439         145.331         145.200         145.046         144.869         144.664    
          144.431         144.152         143.820         143.416         142.952         142.430         141.849         141.223         140.584         139.944    
          139.428         139.304         139.390         139.339         139.443         139.750         140.330         140.891         141.381         141.785    
          142.114         142.379         142.584         142.730         142.837         142.908         142.946         142.972         143.038         143.265    
          143.369         143.020         143.109         143.502         143.604         143.255         143.369         143.724         143.815         143.524    
          143.628         143.908         143.963         143.742         143.808         144.006         144.021         143.874         143.910         143.982    
          143.936         143.768         143.523         143.387         143.276         143.236         143.340         143.323         143.270         143.339    
          143.336         143.363         143.366         143.405         143.382         143.390         143.626         143.741         143.457         143.595    
          143.842         144.000         144.091         144.375         144.489         144.637         144.801         144.970         145.135         145.288    
          145.422         145.529         145.607         145.656         145.679         145.677         145.651         145.600         145.523         145.422    
          145.295         145.141         144.954         144.731         144.456         144.124         143.723         143.248         142.715         142.118    
          141.469         140.780         140.046         139.544         139.412         139.608         139.484         139.397         139.507         139.477    
          139.560         139.815         140.288         140.769         141.199         141.554         141.838         142.055         142.219         142.329    
          142.395         142.416         142.411         142.521         142.556         142.321         142.341         142.601         142.667         142.419    
          142.511         142.793         142.914         142.670         142.801         143.088         143.376         143.599         143.740         143.804    
          143.782         143.662         143.536         143.450         143.402         143.399         143.410         143.387         143.423         143.420    
          143.433         143.568         143.636         143.462         143.521         143.703         143.829         144.475         144.579         144.717    
          144.874         145.038         145.200         145.352         145.484         145.588         145.664         145.714         145.739         145.740    
          145.717         145.669         145.594         145.490         145.356         145.182         144.963         144.691         144.362         143.966    
          143.494         142.962         142.372         141.722         141.015         140.252         139.724         139.588         139.822         139.664    
          139.610         139.867         140.238         140.626         140.989         141.293         141.537         141.720         141.848         141.929    
          141.967         141.958         142.033         142.052         141.844         141.853         142.085         142.149         141.933         142.029    
          142.293         142.620         142.946         143.228         143.445         143.584         143.642         143.613         143.562         143.505    
          143.459         143.433         143.429         143.437         143.453         143.470         143.481         143.475         143.485         143.492    
          143.517         143.499         143.514         143.609         143.552         144.558         144.653         144.785         144.937         145.100    
          145.263         145.414         145.540         145.640         145.715         145.766         145.793         145.797         145.773         145.722    
          145.640         145.523         145.362         145.149         144.877         144.546         144.154         143.697         143.185         142.621    
          142.003         141.322         140.582         139.990         139.774         140.122         139.927         139.702         139.716         139.792    
          139.772         139.877         140.157         140.463         140.761         141.011         141.203         141.348         141.449         141.520    
          141.547         141.535         141.620         141.685         141.493         141.590         141.846         142.198         142.547         142.864    
          143.126         143.319         143.439         143.474         143.483         143.472         143.454         143.438         143.430         143.433    
          143.444         143.460         143.482         143.503         143.519         144.624         144.711         144.838         144.992         145.158    
          145.321         145.466         145.587         145.685         145.760         145.812         145.840         145.841         145.812         145.749    
          145.648         145.497         145.288         145.017         144.685         144.299         143.858         143.370         142.842         142.282    
          141.669         140.988         140.321         139.919         139.833         140.043         139.907         139.884         140.069         140.292    
          140.509         140.693         140.834         140.935         141.016         141.086         141.137         141.244         141.292         141.120    
          141.179         141.368         141.508         141.313         141.463         141.779         142.163         142.511         142.807         143.035    
          143.194         143.279         143.335         143.370         143.388         143.396         143.402         143.410         143.421         143.437    
          143.455         143.475         143.493         143.505         144.668         144.750         144.882         145.042         145.210         145.368    
          145.507         145.626         145.725         145.800         145.850         145.873         145.864         145.818         145.729         145.585    
          145.379         145.107         144.770         144.394         143.976         143.516         143.034         142.537         141.999         141.395    
          140.767         140.258         140.046         140.424         140.243         139.935         139.908         140.064         139.967         139.982    
          140.108         140.238         140.341         140.426         140.576         140.621         140.397         140.429         140.670         140.705    
          140.489         140.531         140.758         140.801         140.606         140.663         140.858         140.914         140.751         140.831    
          140.996         141.107         140.974         141.110         141.395         141.805         142.171         142.490         142.752         142.940    
          143.058         143.152         143.223         143.275         143.312         143.339         143.362         143.383         143.403         143.423    
          143.445         143.465         143.486         143.498         144.692         144.783         144.923         145.087         145.252         145.405    
          145.542         145.660         145.756         145.827         145.868         145.876         145.843         145.762         145.618         145.413    
          145.140         144.791         144.427         144.041         143.621         143.184         142.743         142.278         141.767         141.220    
          140.670         140.248         140.077         140.397         140.246         139.983         139.940         140.085         139.974         139.938    
          139.967         140.060         140.091         139.950         139.978         140.133         140.159         140.036         140.095         140.214    
          140.283         140.208         140.291         140.448         140.654         140.876         141.177         141.534         141.886         142.199    
          142.468         142.688         142.835         142.953         143.052         143.133         143.197         143.247         143.288         143.323    
          143.354         143.383         143.407         143.435         143.451         144.721         144.822         144.964         145.124         145.284    
          145.434         145.568         145.681         145.769         145.825         145.844         145.817         145.733         145.572         145.364    
          145.094         144.708         144.388         144.046         143.667         143.275         142.885         142.489         142.065         141.605    
          141.110         140.641         140.254         140.073         140.414         140.272         139.933         139.876         140.122         140.051    
          139.859         139.872         140.012         140.017         139.929         140.012         140.061         140.115         140.193         140.426    
          140.679         140.905         141.137         141.401         141.689         141.971         142.222         142.428         142.609         142.755    
          142.873         142.973         143.060         143.133         143.193         143.243         143.288         143.326         143.365         143.387    
          144.764         144.860         144.996         145.150         145.306         145.451         145.576         145.676         145.740         145.760    
          145.719         145.617         145.385         145.157         144.898         144.597         144.297         143.979         143.638         143.295    
          142.966         142.628         142.264         141.879         141.464         141.054         140.697         140.445         140.344         140.380    
          140.527         140.730         140.940         141.139         141.350         141.575         141.804         142.031         142.240         142.408    
          142.562         142.700         142.814         142.913         143.001         143.083         143.150         143.204         143.262         143.294    
          144.798         144.883         145.014         145.165         145.313         145.444         145.548         145.610         145.609         145.504    
          145.381         145.204         145.000         144.770         144.515         144.246         143.959         143.651         143.337         143.023    
          142.704         142.377         142.049         141.693         141.336         141.021         140.783         140.669         140.677         140.783    
          140.942         141.115         141.296         141.484         141.672         141.844         142.030         142.215         142.385         142.532    
          142.663         142.774         142.868         142.952         143.050         143.120         143.162         144.804         144.889         145.021    
          145.163         145.290         145.389         145.441         145.395         145.315         145.206         145.060         144.886         144.688    
          144.468         144.231         143.975         143.696         143.404         143.090         142.777         142.464         142.146         141.800    
          141.471         141.188         140.963         140.842         140.831         140.904         141.028         141.178         141.339         141.512    
          141.688         141.853         142.015         142.177         142.367         142.516         142.644         142.752         142.837         142.894    
          144.802         144.889         145.012         145.122         145.212         145.267         145.223         145.162         145.073         144.954    
          144.809         144.641         144.453         144.246         144.019         143.766         143.500         143.148         142.829         142.520    
          142.209         141.869         141.547         141.275         141.057         140.933         140.912         140.969         141.078         141.214    
          141.364         141.528         141.696         141.850         141.986         142.084         144.798         144.885         144.950         145.014    
          145.068         145.073         145.042         144.977         144.882         144.763         144.623         144.464         144.283         144.091    
          143.846         143.674         144.827         144.794         144.832         144.925         144.965         144.959         144.915         144.839    
          144.740         144.626         144.499         144.332         144.211         144.637         144.691         144.840         144.906         144.917    
          144.884         144.818         144.734         144.643         144.571    
1
  HEAD IN LAYER   3 AT END OF TIME STEP   1 IN STRESS PERIOD    1
  ---------------------------------------------------------------------------

                1               2               3               4               5               6               7               8               9              10
               11              12              13              14              15              16              17              18              19              20
               21              22              23              24              25              26              27              28              29              30
               31              32              33              34              35              36              37              38              39              40
               41              42              43              44              45              46              47              48              49              50
               51              52              53              54              55              56              57              58              59              60
               61              62              63              64              65              66              67              68              69              70
               71              72              73              74              75              76              77              78              79              80
               81              82              83              84              85              86              87              88              89              90
               91              92              93              94              95              96              97              98              99             100
              101             102             103             104             105             106             107             108             109             110
              111             112             113             114             115             116             117             118             119             120
              121             122             123             124             125             126             127             128             129             130
              131             132             133             134             135             136             137             138             139             140
              141             142             143             144             145             146             147             148             149             150
              151             152             153             154             155             156             157             158             159             160
              161             162             163             164             165             166             167             168             169             170
              171             172             173             174             175             176             177             178             179             180
              181             182             183             184             185             186             187             188             189             190
              191             192             193             194             195             196             197             198             199             200
              201             202             203             204             205             206             207             208             209             210
              211             212             213             214             215             216             217             218             219             220
              221             222             223             224             225             226             227             228             229             230
              231             232             233             234             235             236             237             238             239             240
              241             242             243             244             245             246             247             248             249             250
              251             252             253             254             255             256             257             258             259             260
              261             262             263             264             265             266             267             268             269             270
              271             272             273             274             275             276             277             278             279             280
              281             282             283             284             285             286             287             288             289             290
              291             292             293             294             295             296             297             298             299             300
              301             302             303             304             305             306             307             308             309             310
              311             312             313             314             315             316             317             318             319             320
              321             322             323             324             325             326             327             328             329             330
              331             332             333             334             335             336             337             338             339             340
              341             342             343             344             345             346             347             348             349             350
              351             352             353             354             355             356             357             358             359             360
              361             362             363             364             365             366             367             368             369             370
              371             372             373             374             375             376             377             378             379             380
              381             382             383             384             385             386             387             388             389             390
              391             392             393             394             395             396             397             398             399             400
              401             402             403             404             405             406             407             408             409             410
              411             412             413             414             415             416             417             418             419             420
              421             422             423             424             425             426             427             428             429             430
              431             432             433             434             435             436             437             438             439             440
              441             442             443             444             445             446             447             448             449             450
              451             452             453             454             455             456             457             458             459             460
              461             462             463             464             465             466             467             468             469             470
              471             472             473             474             475             476             477             478             479             480
              481             482             483             484             485             486             487             488             489             490
              491             492             493             494             495             496             497             498             499             500
              501             502             503             504             505             506             507             508             509             510
              511             512             513             514             515             516             517             518             519             520
              521             522             523             524             525             526             527             528             529             530
              531             532             533             534             535             536             537             538             539             540
              541             542             543             544             545             546             547             548             549             550
              551             552             553             554             555             556             557             558             559             560
              561             562             563             564             565             566             567             568             569             570
              571             572             573             574             575             576             577             578             579             580
              581             582             583             584             585             586             587             588             589             590
              591             592             593             594             595             596             597             598             599             600
              601             602             603             604             605             606             607             608             609             610
              611             612             613             614             615             616             617             618             619             620
              621             622             623             624             625             626             627             628             629             630
              631             632             633             634             635             636             637             638             639             640
              641             642             643             644             645             646             647             648             649             650
              651             652             653             654             655             656             657             658             659             660
              661             662             663             664             665             666             667             668             669             670
              671             672             673             674             675             676             677             678             679             680
              681             682             683             684             685             686             687             688             689             690
              691             692             693             694             695             696             697             698             699             700
              701             702             703             704             705             706             707             708             709             710
              711             712             713             714             715             716             717             718             719             720
              721             722             723             724             725             726             727             728             729             730
              731             732             733             734             735             736             737             738             739             740
              741             742             743             744             745             746             747             748             749             750
              751             752             753             754             755             756             757             758             759             760
              761             762             763             764             765             766             767             768             769             770
              771             772             773             774             775             776             777             778             779             780
              781             782             783             784             785             786             787             788             789             790
              791             792             793             794             795             796             797             798             799             800
              801             802             803             804             805             806             807             808             809             810
              811             812             813             814             815             816             817             818             819             820
              821             822             823             824             825             826             827             828             829             830
              831             832             833             834             835             836             837             838             839             840
              841             842             843             844             845             846             847             848             849             850
              851             852             853             854             855             856             857             858             859             860
              861             862             863             864             865             866             867             868             869             870
              871             872             873             874             875             876             877             878             879             880
              881             882             883             884             885             886             887             888             889             890
              891             892             893             894             895             896             897             898             899             900
              901             902             903             904             905             906             907             908             909             910
              911             912             913             914             915             916             917             918             919             920
              921             922             923             924             925             926             927             928             929             930
              931             932             933             934             935             936             937             938             939             940
              941             942             943             944             945             946             947             948             949             950
              951             952             953             954             955             956             957             958             959             960
              961             962             963             964             965             966             967             968             969             970
              971             972             973             974             975             976             977             978             979             980
              981             982             983             984             985             986             987             988             989             990
              991             992             993             994             995             996             997             998             999            1000
             1001            1002            1003            1004            1005            1006            1007            1008            1009            1010
             1011            1012            1013            1014            1015            1016            1017            1018            1019            1020
             1021            1022            1023            1024            1025            1026            1027            1028            1029            1030
             1031            1032            1033            1034            1035            1036            1037            1038            1039            1040
             1041            1042            1043            1044            1045            1046            1047            1048            1049            1050
             1051            1052            1053            1054            1055            1056            1057            1058            1059            1060
             1061            1062            1063            1064            1065            1066            1067            1068            1069            1070
             1071            1072            1073            1074            1075            1076            1077            1078            1079            1080
             1081            1082            1083            1084            1085            1086            1087            1088            1089            1090
             1091            1092            1093            1094            1095            1096            1097            1098            1099            1100
             1101            1102            1103            1104            1105            1106            1107            1108            1109            1110
             1111            1112            1113            1114            1115            1116            1117            1118            1119            1120
             1121            1122            1123            1124            1125            1126            1127            1128            1129            1130
             1131            1132            1133            1134            1135            1136            1137            1138            1139            1140
             1141            1142            1143            1144            1145            1146            1147            1148            1149            1150
             1151            1152            1153            1154            1155            1156            1157            1158            1159            1160
             1161            1162            1163            1164            1165            1166            1167            1168            1169            1170
             1171            1172            1173            1174            1175            1176            1177            1178            1179            1180
             1181            1182            1183            1184            1185            1186            1187            1188            1189            1190
             1191            1192            1193            1194            1195            1196            1197            1198            1199            1200
             1201            1202            1203            1204            1205            1206            1207            1208            1209            1210
             1211            1212            1213            1214            1215            1216            1217            1218            1219            1220
             1221            1222            1223            1224            1225            1226            1227            1228            1229            1230
             1231            1232            1233            1234            1235            1236            1237            1238            1239            1240
             1241            1242            1243            1244            1245            1246            1247            1248            1249            1250
             1251            1252            1253            1254            1255            1256            1257            1258            1259            1260
             1261            1262            1263            1264            1265            1266            1267            1268            1269            1270
             1271            1272            1273            1274            1275            1276            1277            1278            1279            1280
             1281            1282            1283            1284            1285            1286            1287            1288            1289            1290
             1291            1292            1293            1294            1295            1296            1297            1298            1299            1300
             1301            1302            1303            1304            1305            1306            1307            1308            1309            1310
             1311            1312            1313            1314            1315            1316            1317            1318            1319            1320
             1321            1322            1323            1324            1325            1326            1327            1328            1329            1330
             1331            1332            1333            1334            1335            1336            1337            1338            1339            1340
             1341            1342            1343            1344            1345            1346            1347            1348            1349            1350
             1351            1352            1353            1354            1355            1356            1357            1358            1359            1360
             1361            1362            1363            1364            1365            1366            1367            1368            1369            1370
             1371            1372            1373            1374            1375            1376            1377            1378            1379            1380
             1381            1382            1383            1384            1385            1386            1387            1388            1389            1390
             1391            1392            1393            1394            1395            1396            1397            1398            1399            1400
             1401            1402            1403            1404            1405            1406            1407            1408            1409            1410
             1411            1412            1413            1414            1415            1416            1417            1418            1419            1420
             1421            1422            1423            1424            1425            1426            1427            1428            1429            1430
             1431            1432            1433            1434            1435            1436            1437            1438            1439            1440
             1441            1442            1443            1444            1445            1446            1447            1448            1449            1450
             1451            1452            1453            1454            1455            1456            1457            1458            1459            1460
             1461            1462            1463            1464            1465            1466            1467            1468            1469            1470
             1471            1472            1473            1474            1475            1476            1477            1478            1479            1480
             1481            1482            1483            1484            1485            1486            1487            1488            1489            1490
             1491            1492            1493            1494            1495            1496            1497            1498            1499            1500
             1501            1502            1503            1504            1505            1506            1507            1508            1509            1510
             1511            1512            1513            1514            1515            1516            1517            1518            1519            1520
             1521            1522            1523            1524            1525            1526            1527            1528            1529            1530
             1531            1532            1533            1534            1535            1536            1537            1538            1539            1540
             1541            1542            1543            1544            1545            1546            1547            1548            1549            1550
             1551            1552            1553            1554            1555            1556            1557            1558            1559            1560
             1561            1562            1563            1564            1565            1566            1567            1568            1569            1570
             1571            1572            1573            1574            1575            1576            1577            1578            1579            1580
             1581            1582            1583            1584            1585            1586            1587            1588            1589            1590
             1591            1592            1593            1594            1595            1596            1597            1598            1599            1600
             1601            1602            1603            1604            1605            1606            1607            1608            1609            1610
             1611            1612            1613            1614            1615            1616            1617            1618            1619            1620
             1621            1622            1623            1624            1625            1626            1627            1628            1629            1630
             1631            1632            1633            1634            1635            1636            1637            1638            1639            1640
             1641            1642            1643            1644            1645            1646            1647            1648            1649            1650
             1651            1652            1653            1654            1655            1656            1657            1658            1659            1660
             1661            1662            1663            1664            1665            1666            1667            1668            1669            1670
             1671            1672            1673            1674            1675            1676            1677            1678            1679            1680
             1681            1682            1683            1684            1685            1686            1687            1688            1689            1690
             1691            1692            1693            1694            1695            1696            1697            1698            1699            1700
             1701            1702            1703            1704            1705            1706            1707            1708            1709            1710
             1711            1712            1713            1714            1715            1716            1717            1718            1719            1720
             1721            1722            1723            1724            1725            1726            1727            1728            1729            1730
             1731            1732            1733            1734            1735            1736            1737            1738            1739            1740
             1741            1742            1743            1744            1745            1746            1747            1748            1749            1750
             1751            1752            1753            1754            1755            1756            1757            1758            1759            1760
             1761            1762            1763            1764            1765            1766            1767            1768            1769            1770
             1771            1772            1773            1774            1775            1776            1777            1778            1779            1780
             1781            1782            1783            1784            1785            1786            1787            1788            1789            1790
             1791            1792            1793            1794            1795            1796            1797            1798            1799            1800
             1801            1802            1803            1804            1805            1806            1807            1808            1809            1810
             1811            1812            1813            1814            1815            1816            1817            1818            1819            1820
             1821            1822            1823            1824            1825            1826            1827            1828            1829            1830
             1831            1832            1833            1834            1835            1836            1837            1838            1839            1840
             1841            1842            1843            1844            1845            1846            1847            1848            1849            1850
             1851            1852            1853            1854            1855            1856            1857            1858            1859            1860
             1861            1862            1863            1864            1865            1866            1867            1868            1869            1870
             1871            1872            1873            1874            1875            1876            1877            1878            1879            1880
             1881            1882            1883            1884            1885            1886            1887            1888            1889            1890
             1891            1892            1893            1894            1895            1896            1897            1898            1899            1900
             1901            1902            1903            1904            1905            1906            1907            1908            1909            1910
             1911            1912            1913            1914            1915            1916            1917            1918            1919            1920
             1921            1922            1923            1924            1925            1926            1927            1928            1929            1930
             1931            1932            1933            1934            1935            1936            1937            1938            1939            1940
             1941            1942            1943            1944            1945            1946            1947            1948            1949            1950
             1951            1952            1953            1954            1955            1956            1957            1958            1959            1960
             1961            1962            1963            1964            1965            1966            1967            1968            1969            1970
             1971            1972            1973            1974            1975            1976            1977            1978            1979            1980
             1981            1982            1983            1984            1985            1986            1987            1988            1989            1990
             1991            1992            1993            1994            1995            1996            1997            1998            1999            2000
             2001            2002            2003            2004            2005            2006            2007            2008            2009            2010
             2011            2012            2013            2014            2015            2016            2017            2018            2019            2020
             2021            2022            2023            2024            2025            2026            2027            2028            2029            2030
             2031            2032            2033            2034            2035            2036            2037            2038            2039            2040
             2041            2042            2043            2044            2045            2046            2047            2048            2049            2050
             2051            2052            2053            2054            2055            2056            2057            2058            2059            2060
             2061            2062            2063            2064            2065            2066            2067            2068            2069            2070
             2071            2072            2073            2074            2075            2076            2077            2078            2079            2080
             2081            2082            2083            2084            2085            2086            2087            2088            2089            2090
             2091            2092            2093            2094            2095            2096            2097            2098            2099            2100
             2101            2102            2103            2104            2105            2106            2107            2108            2109            2110
             2111            2112            2113            2114            2115            2116            2117            2118            2119            2120
             2121            2122            2123            2124            2125            2126            2127            2128            2129            2130
             2131            2132            2133            2134            2135            2136            2137            2138            2139            2140
             2141            2142            2143            2144            2145            2146            2147            2148            2149            2150
             2151            2152            2153            2154            2155            2156            2157            2158            2159            2160
             2161            2162            2163            2164            2165            2166            2167            2168            2169            2170
             2171            2172            2173            2174            2175            2176            2177            2178            2179            2180
             2181            2182            2183            2184            2185            2186            2187            2188            2189            2190
             2191            2192            2193            2194            2195            2196            2197            2198            2199            2200
             2201            2202            2203            2204            2205            2206            2207            2208            2209            2210
             2211            2212            2213            2214            2215            2216            2217            2218            2219            2220
             2221            2222            2223            2224            2225            2226            2227            2228            2229            2230
             2231            2232            2233            2234            2235            2236            2237            2238            2239            2240
             2241            2242            2243            2244            2245            2246            2247            2248            2249            2250
             2251            2252            2253            2254            2255            2256            2257            2258            2259            2260
             2261            2262            2263            2264            2265            2266            2267            2268            2269            2270
             2271            2272            2273            2274            2275            2276            2277            2278            2279            2280
             2281            2282            2283            2284            2285            2286            2287            2288            2289            2290
             2291            2292            2293            2294            2295            2296            2297            2298            2299            2300
             2301            2302            2303            2304            2305            2306            2307            2308            2309            2310
             2311            2312            2313            2314            2315            2316            2317            2318            2319            2320
             2321            2322            2323            2324            2325            2326            2327            2328            2329            2330
             2331            2332            2333            2334            2335            2336            2337            2338            2339            2340
             2341            2342            2343            2344            2345            2346            2347            2348            2349            2350
             2351            2352            2353            2354            2355            2356            2357            2358            2359            2360
             2361            2362            2363            2364            2365            2366            2367            2368            2369            2370
             2371            2372            2373            2374            2375            2376            2377            2378            2379            2380
             2381            2382            2383            2384            2385            2386            2387            2388            2389            2390
             2391            2392            2393            2394            2395            2396            2397            2398            2399            2400
             2401            2402            2403            2404            2405            2406            2407            2408            2409            2410
             2411            2412            2413            2414            2415            2416            2417            2418            2419            2420
             2421            2422            2423            2424            2425            2426            2427            2428            2429            2430
             2431            2432            2433            2434            2435            2436            2437            2438            2439            2440
             2441            2442            2443            2444            2445            2446            2447            2448            2449            2450
             2451            2452            2453            2454            2455            2456            2457            2458            2459            2460
             2461            2462            2463            2464            2465            2466            2467            2468            2469            2470
             2471            2472            2473            2474            2475            2476            2477            2478            2479            2480
             2481            2482            2483            2484            2485            2486            2487            2488            2489            2490
             2491            2492            2493            2494            2495            2496            2497            2498            2499            2500
             2501            2502            2503            2504            2505            2506            2507            2508            2509            2510
             2511            2512            2513            2514            2515            2516            2517            2518            2519            2520
             2521            2522            2523            2524            2525            2526            2527            2528            2529            2530
             2531            2532            2533            2534            2535            2536            2537            2538            2539            2540
             2541            2542            2543            2544            2545            2546            2547            2548            2549            2550
             2551            2552            2553            2554            2555            2556            2557            2558            2559            2560
             2561            2562            2563            2564            2565            2566            2567            2568            2569            2570
             2571            2572            2573            2574            2575            2576            2577            2578            2579            2580
             2581            2582            2583            2584            2585            2586            2587            2588            2589            2590
             2591            2592            2593            2594            2595            2596            2597            2598            2599            2600
             2601            2602            2603            2604            2605            2606            2607            2608            2609            2610
             2611            2612            2613            2614            2615            2616            2617            2618            2619            2620
             2621            2622            2623            2624            2625            2626            2627            2628            2629            2630
             2631            2632            2633            2634            2635            2636            2637            2638            2639            2640
             2641            2642            2643            2644            2645            2646            2647            2648            2649            2650
             2651            2652            2653            2654            2655            2656            2657            2658            2659            2660
             2661            2662            2663            2664            2665            2666            2667            2668            2669            2670
             2671            2672            2673            2674            2675            2676            2677            2678            2679            2680
             2681            2682            2683            2684            2685            2686            2687            2688            2689            2690
             2691            2692            2693            2694            2695            2696            2697            2698            2699            2700
             2701            2702            2703            2704            2705            2706            2707            2708            2709            2710
             2711            2712            2713            2714            2715            2716            2717            2718            2719            2720
             2721            2722            2723            2724            2725            2726            2727            2728            2729            2730
             2731            2732            2733            2734            2735            2736            2737            2738            2739            2740
             2741            2742            2743            2744            2745            2746            2747            2748            2749            2750
             2751            2752            2753            2754            2755            2756            2757            2758            2759            2760
             2761            2762            2763            2764            2765            2766            2767            2768            2769            2770
             2771            2772            2773            2774            2775            2776            2777            2778            2779            2780
             2781            2782            2783            2784            2785            2786            2787            2788            2789            2790
             2791            2792            2793            2794            2795            2796            2797            2798            2799            2800
             2801            2802            2803            2804            2805            2806            2807            2808            2809            2810
             2811            2812            2813            2814            2815            2816            2817            2818            2819            2820
             2821            2822            2823            2824            2825            2826            2827            2828            2829            2830
             2831            2832            2833            2834            2835            2836            2837            2838            2839            2840
             2841            2842            2843            2844            2845            2846            2847            2848            2849            2850
             2851            2852            2853            2854            2855            2856            2857            2858            2859            2860
             2861            2862            2863            2864            2865            2866            2867            2868            2869            2870
             2871            2872            2873            2874            2875            2876            2877            2878            2879            2880
             2881            2882            2883            2884            2885            2886            2887            2888            2889            2890
             2891            2892            2893            2894            2895            2896            2897            2898            2899            2900
             2901            2902            2903            2904            2905            2906            2907            2908            2909            2910
             2911            2912            2913            2914            2915            2916            2917            2918            2919            2920
             2921            2922            2923            2924            2925            2926            2927            2928            2929            2930
             2931            2932            2933            2934            2935            2936            2937            2938            2939            2940
             2941            2942            2943            2944            2945            2946            2947            2948            2949            2950
             2951            2952            2953            2954            2955            2956            2957            2958            2959            2960
             2961            2962            2963            2964            2965            2966            2967            2968            2969            2970
             2971            2972            2973            2974            2975            2976            2977            2978            2979            2980
             2981            2982            2983            2984            2985            2986            2987            2988            2989            2990
             2991            2992            2993            2994            2995            2996            2997            2998            2999            3000
             3001            3002            3003            3004            3005            3006            3007            3008            3009            3010
             3011            3012            3013            3014            3015            3016            3017            3018            3019            3020
             3021            3022            3023            3024            3025            3026            3027            3028            3029            3030
             3031            3032            3033            3034            3035            3036            3037            3038            3039            3040
             3041            3042            3043            3044            3045            3046            3047            3048            3049            3050
             3051            3052            3053            3054            3055            3056            3057            3058            3059            3060
             3061            3062            3063            3064            3065            3066            3067            3068            3069            3070
             3071            3072            3073            3074            3075            3076            3077            3078            3079            3080
             3081            3082            3083            3084            3085            3086            3087            3088            3089            3090
             3091            3092            3093            3094            3095            3096            3097            3098            3099            3100
             3101            3102            3103            3104            3105            3106            3107            3108            3109            3110
             3111            3112            3113            3114            3115            3116            3117            3118            3119            3120
             3121            3122            3123            3124            3125            3126            3127            3128            3129            3130
             3131            3132            3133            3134            3135
 ................................................................................................................................................................
   1      138.905         138.753         138.524         138.264         138.056         137.925         138.076         137.945         137.746         137.527    
          137.362         137.252         137.195         137.183         137.207         137.261         137.336         137.426         137.525         137.626    
          137.720         137.802         137.857         139.311         139.098         138.884         138.635         138.365         138.128         137.995    
          138.182         138.074         137.863         137.765         137.937         137.813         137.609         137.433         137.312         137.246    
          137.226         137.245         137.295         137.368         137.456         137.554         137.656         137.754         137.846         137.929    
          138.014         139.759         139.541         139.322         139.089         138.831         138.557         138.275         138.028         137.899    
          138.111         138.009         137.770         137.680         137.871         137.777         137.576         137.508         137.667         137.574    
          137.430         137.342         137.305         137.312         137.352         137.419         137.503         137.599         137.701         137.804    
          137.905         138.004         138.102         138.200         140.187         139.987         139.786         139.574         139.344         139.090    
          138.820         138.541         138.261         137.997         137.775         137.674         137.867         137.790         137.589         137.535    
          137.696         137.614         137.485         137.421         137.406         137.429         137.483         137.559         137.649         137.749    
          137.856         137.965         138.074         138.185         138.296         138.407         140.560         140.393         140.222         140.042    
          139.847         139.631         139.390         139.132         138.860         138.581         138.302         138.039         137.822         137.730    
          137.929         137.860         137.656         137.611         137.774         137.700         137.579         137.531         137.529         137.561    
          137.621         137.701         137.795         137.903         138.018         138.137         138.261         138.387         138.515         138.644    
          140.866         140.732         140.600         140.460         140.307         140.135         139.939         139.718         139.476         139.218    
          138.945         138.662         138.382         138.128         137.914         137.828         138.031         137.968         137.761         137.721    
          137.889         137.819         137.701         137.661         137.662         137.697         137.758         137.842         137.945         138.062    
          138.190         138.327         138.470         138.618         138.770         138.922         141.098         141.006         140.907         140.806    
          140.695         140.569         140.422         140.252         140.054         139.834         139.595         139.337         139.061         138.776    
          138.501         138.253         138.041         137.957         138.168         138.108         137.895         137.857         138.033         137.963    
          137.843         137.800         137.798         137.831         137.894         137.985         138.100         138.234         138.382         138.542    
          138.712         138.889         139.073         139.259         141.260         141.199         141.140         141.077         141.008         140.926    
          140.827         140.707         140.562         140.391         140.195         139.979         139.741         139.481         139.204         138.923    
          138.653         138.412         138.197         138.114         138.336         138.278         138.051         138.011         138.201         138.127    
          137.994         137.943         137.935         137.965         138.033         138.137         138.270         138.427         138.602         138.792    
          138.996         139.214         139.445         139.687         141.363         141.333         141.305         141.278         141.246         141.207    
          141.154         141.082         140.989         140.871         140.727         140.558         140.366         140.151         139.913         139.653    
          139.379         139.102         138.838         138.602         138.379         138.289         138.528         138.465         138.217         138.168    
          138.375         138.317         138.117         138.085         138.245         138.205         138.060         138.048         138.160         138.124    
          138.070         138.102         138.181         138.305         138.463         138.649         138.857         139.086         139.335         139.609    
          139.921         140.330         140.678         140.989         141.280         141.561         141.834         142.101         142.363         142.623    
          142.880         143.135         143.387         143.634         143.878         144.118         144.354         144.584         144.808         145.026    
          145.235         145.434         145.620         145.795         145.961         146.126         146.300         146.497         146.725         146.983    
          147.239         147.484         147.703         147.891         148.045         148.164         148.236         141.421         141.418         141.418    
          141.418         141.414         141.402         141.375         141.332         141.265         141.174         141.057         140.914         140.748    
          140.557         140.340         140.101         139.843         139.572         139.302         139.043         138.807         138.607         138.437    
          138.284         138.231         138.389         138.351         138.198         138.182         138.299         138.275         138.181         138.189    
          138.255         138.247         138.247         138.348         138.497         138.685         138.904         139.150         139.421         139.718    
          140.035         140.373         140.698         141.001         141.288         141.567         141.839         142.106         142.369         142.629    
          142.886         143.144         143.399         143.650         143.897         144.142         144.383         144.618         144.848         145.072    
          145.287         145.492         145.684         145.864         146.036         146.208         146.388         146.587         146.810         147.054    
          147.302         147.539         147.752         147.939         148.093         148.215         148.305         148.379         141.507         141.519    
          141.538         141.561         141.581         141.593         141.592         141.575         141.535         141.469         141.377         141.258    
          141.116         140.949         140.756         140.537         140.299         140.042         139.776         139.509         139.252         139.011    
          138.792         138.600         138.458         138.351         138.327         138.436         138.403         138.354         138.412         138.537    
          138.714         138.934         139.189         139.474         139.784         140.098         140.411         140.721         141.015         141.298    
          141.574         141.843         142.108         142.372         142.634         142.894         143.156         143.416         143.673         143.928    
          144.181         144.431         144.676         144.916         145.152         145.378         145.591         145.792         145.980         146.161    
          146.340         146.525         146.724         146.942         147.174         147.410         147.638         147.846         148.030         148.181    
          148.300         148.385         148.447         148.501         141.609         141.630         141.665         141.706         141.747         141.782    
          141.804         141.810         141.794         141.753         141.683         141.588         141.468         141.323         141.153         140.956    
          140.737         140.498         140.242         139.978         139.711         139.447         139.193         138.957         138.752         138.573    
          138.516         138.681         138.638         138.484         138.472         138.587         138.551         138.512         138.592         138.743    
          138.951         139.205         139.496         139.814         140.128         140.433         140.734         141.023         141.300         141.573    
          141.838         142.103         142.367         142.631         142.895         143.163         143.430         143.696         143.961         144.225    
          144.487         144.744         144.999         145.249         145.488         145.713         145.924         146.121         146.310         146.496    
          146.686         146.885         147.099         147.322         147.549         147.770         147.976         148.156         148.305         148.411    
          148.477         148.518         148.547         148.571         141.720         141.748         141.795         141.853         141.913         141.968    
          142.011         142.037         142.041         142.021         141.975         141.901         141.802         141.677         141.528         141.352    
          141.152         140.931         140.690         140.433         140.165         139.891         139.616         139.349         139.100         138.881    
          138.711         138.656         138.811         138.770         138.629         138.624         138.724         138.695         138.675         138.780    
          138.960         139.202         139.492         139.814         140.131         140.433         140.731         141.016         141.289         141.556    
          141.818         142.081         142.346         142.613         142.883         143.156         143.431         143.707         143.984         144.262    
          144.538         144.811         145.080         145.346         145.601         145.838         146.058         146.266         146.464         146.658    
          146.852         147.052         147.264         147.482         147.704         147.923         148.129         148.306         148.453         148.539    
          148.576         148.588         148.588         148.585         148.579         141.835         141.868         141.926         141.998         142.075    
          142.147         142.208         142.252         142.275         142.274         142.247         142.194         142.114         142.009         141.879    
          141.723         141.543         141.339         141.113         140.867         140.604         140.329         140.045         139.758         139.479    
          139.218         138.998         138.838         138.790         138.929         138.892         138.771         138.774         138.853         138.835    
          138.838         138.972         139.187         139.467         139.789         140.108         140.409         140.705         140.986         141.255    
          141.516         141.775         142.036         142.302         142.571         142.847         143.128         143.413         143.701         143.992    
          144.284         144.575         144.865         145.149         145.432         145.701         145.949         146.182         146.400         146.608    
          146.810         147.009         147.212         147.426         147.645         147.866         148.084         148.289         148.459         148.595    
          148.663         148.667         148.647         148.619         148.591         148.564         148.536         141.950         141.988         142.054    
          142.138         142.230         142.318         142.394         142.454         142.494         142.509         142.499         142.463         142.402    
          142.315         142.203         142.066         141.905         141.718         141.508         141.276         141.023         140.752         140.466    
          140.171         139.873         139.582         139.316         139.100         138.953         138.914         139.032         139.000         138.906    
          138.917         138.971         138.966         138.998         139.170         139.427         139.742         140.062         140.362         140.654    
          140.930         141.194         141.449         141.705         141.965         142.230         142.503         142.784         143.074         143.369    
          143.671         143.976         144.284         144.592         144.897         145.198         145.495         145.777         146.038         146.282    
          146.512         146.730         146.941         147.147         147.356         147.573         147.795         148.020         148.236         148.437    
          148.603         148.714         148.753         148.727         148.681         148.630         148.582         148.540         148.503         148.470    
          142.061         142.103         142.176         142.271         142.375         142.477         142.567         142.642         142.695         142.725    
          142.730         142.708         142.663         142.594         142.499         142.380         142.237         142.069         141.875         141.658    
          141.417         141.155         140.873         140.578         140.271         139.960         139.660         139.393         139.183         139.054    
          139.027         139.120         139.097         139.034         139.059         139.083         139.095         139.165         139.382         139.680    
          139.995         140.292         140.576         140.845         141.102         141.353         141.603         141.860         142.126         142.402    
          142.689         142.988         143.295         143.611         143.933         144.258         144.583         144.904         145.219         145.529    
          145.823         146.096         146.353         146.595         146.824         147.045         147.260         147.476         147.698         147.924    
          148.151         148.371         148.566         148.714         148.791         148.797         148.746         148.680         148.613         148.552    
          148.499         148.459         148.434         142.167         142.212         142.292         142.395         142.510         142.622         142.725    
          142.812         142.878         142.921         142.939         142.931         142.900         142.846         142.768         142.666         142.540    
          142.389         142.213         142.012         141.785         141.535         141.261         140.969         140.663         140.344         140.023    
          139.719         139.453         139.253         139.150         139.140         139.205         139.195         139.168         139.212         139.202    
          139.237         139.349         139.613         139.915         140.203         140.475         140.732         140.980         141.223         141.469    
          141.721         141.986         142.265         142.559         142.867         143.188         143.520         143.860         144.202         144.545    
          144.882         145.210         145.530         145.835         146.121         146.391         146.644         146.884         147.115         147.341    
          147.564         147.791         148.020         148.247         148.458         148.646         148.768         148.811         148.788         148.720    
          148.641         148.564         148.494         148.436         148.394         148.373         142.264         142.313         142.398         142.509    
          142.632         142.754         142.867         142.964         143.042         143.097         143.127         143.131         143.113         143.073    
          143.011         142.926         142.817         142.684         142.525         142.340         142.129         141.892         141.630         141.346    
          141.042         140.722         140.393         140.066         139.761         139.503         139.324         139.257         139.269         139.308    
          139.308         139.350         139.555         139.826         140.100         140.354         140.593         140.829         141.062         141.300    
          141.547         141.808         142.088         142.389         142.708         143.045         143.395         143.754         144.116         144.478    
          144.832         145.173         145.502         145.815         146.112         146.393         146.657         146.908         147.149         147.382    
          147.609         147.840         148.070         148.291         148.494         148.661         148.753         148.767         148.722         148.646    
          148.562         148.481         148.409         148.350         148.309         148.289         142.351         142.404         142.496         142.613    
          142.742         142.872         142.992         143.099         143.186         143.252         143.293         143.310         143.304         143.278    
          143.230         143.161         143.069         142.953         142.811         142.642         142.446         142.224         141.974         141.700    
          141.405         141.087         140.756         140.420         140.092         139.792         139.548         139.402         139.370         139.479    
          139.434         139.397         139.523         139.740         139.984         140.215         140.433         140.650         140.869         141.095    
          141.334         141.591         141.871         142.178         142.511         142.865         143.236         143.616         144.001         144.382    
          144.753         145.108         145.446         145.767         146.071         146.361         146.634         146.895         147.144         147.381    
          147.611         147.841         148.067         148.279         148.461         148.596         148.661         148.656         148.604         148.529    
          148.448         148.370         148.300         148.244         148.205         148.185         142.423         142.486         142.586         142.708    
          142.841         142.975         143.102         143.216         143.312         143.388         143.440         143.468         143.475         143.461    
          143.428         143.374         143.299         143.199         143.073         142.921         142.740         142.532         142.296         142.033    
          141.746         141.437         141.108         140.769         140.430         140.106         139.816         139.602         139.528         139.691    
          139.631         139.487         139.477         139.567         139.534         139.529         139.670         139.862         140.061         140.254    
          140.447         140.646         140.853         141.078         141.329         141.610         141.926         142.273         142.647         143.042    
          143.448         143.856         144.257         144.645         145.016         145.366         145.693         146.002         146.296         146.578    
          146.845         147.098         147.339         147.571         147.793         148.004         148.197         148.360         148.466         148.506    
          148.497         148.450         148.381         148.308         148.236         148.171         148.118         148.080         148.061         142.472    
          142.563         142.672         142.797         142.930         143.065         143.195         143.316         143.420         143.505         143.568    
          143.608         143.627         143.627         143.607         143.569         143.509         143.425         143.316         143.179         143.015    
          142.822         142.600         142.349         142.072         141.770         141.446         141.108         140.764         140.426         140.110    
          139.840         139.666         139.607         139.745         139.675         139.586         139.625         139.742         139.894         140.053    
          140.219         140.391         140.574         140.780         141.020         141.302         141.629         141.996         142.395         142.818    
          143.252         143.685         144.107         144.512         144.896         145.260         145.594         145.904         146.200         146.487    
          146.760         147.016         147.260         147.491         147.704         147.894         148.061         148.206         148.298         148.327    
          148.317         148.276         148.215         148.150         148.084         148.023         147.970         147.934         147.916         142.649    
          142.760         142.883         143.013         143.145         143.276         143.398         143.508         143.602         143.677         143.731    
          143.764         143.778         143.773         143.750         143.705         143.636         143.542         143.420         143.271         143.094    
          142.886         142.648         142.382         142.089         141.772         141.438         141.093         140.747         140.413         140.105    
          139.869         139.771         139.962         139.855         139.688         139.618         139.637         139.720         139.833         139.963    
          140.106         140.264         140.448         140.673         140.953         141.294         141.686         142.116         142.571         143.036    
          143.496         143.940         144.363         144.760         145.130         145.469         145.782         146.079         146.368         146.643    
          146.901         147.145         147.374         147.580         147.760         147.913         148.044         148.131         148.156         148.141    
          148.101         148.045         147.981         147.917         147.856         147.806         147.770         147.753         142.856         142.971    
          143.091         143.217         143.344         143.467         143.581         143.683         143.770         143.838         143.887         143.916    
          143.926         143.917         143.887         143.833         143.753         143.646         143.512         143.349         143.156         142.931    
          142.677         142.394         142.086         141.759         141.417         141.069         140.724         140.404         140.259         140.541    
          140.392         140.101         139.976         140.233         140.085         139.846         139.664         139.568         139.560         139.616    
          139.702         139.816         139.954         140.118         140.327         140.616         140.760         140.465         140.608         140.954    
          141.110         140.788         140.988         141.365         141.826         142.313         142.807         143.292         143.759         144.200    
          144.611         144.987         145.329         145.643         145.939         146.227         146.505         146.765         147.006         147.231    
          147.434         147.613         147.763         147.889         147.973         147.994         147.972         147.929         147.870         147.805    
          147.739         147.678         147.627         147.591         147.572         143.061         143.170         143.286         143.407         143.527    
          143.644         143.753         143.849         143.930         143.994         144.039         144.065         144.071         144.056         144.017    
          143.952         143.859         143.738         143.589         143.410         143.199         142.958         142.689         142.393         142.076    
          141.743         141.398         141.049         140.719         140.550         140.849         140.718         140.382         140.231         140.534    
          140.397         140.079         139.966         140.227         140.072         139.797         139.582         139.474         139.462         139.497    
          139.579         139.692         139.839         140.047         140.150         139.933         140.030         140.296         140.451         140.160    
          140.311         140.630         140.832         140.487         140.687         141.052         141.230         140.904         141.128         141.546    
          142.061         142.580         143.087         143.571         144.025         144.446         144.828         145.175         145.493         145.791    
          146.078         146.356         146.614         146.848         147.063         147.261         147.441         147.594         147.719         147.802    
          147.820         147.793         147.743         147.682         147.612         147.542         147.479         147.426         147.390         147.373    
          143.255         143.358         143.468         143.583         143.699         143.812         143.915         144.007         144.084         144.145    
          144.187         144.210         144.210         144.186         144.136         144.058         143.951         143.816         143.653         143.456    
          143.231         142.976         142.696         142.394         142.073         141.739         141.398         141.054         140.715         140.392    
          140.222         140.523         140.392         140.045         139.916         140.206         140.070         139.763         139.661         139.894    
          139.782         139.565         139.508         139.656         139.586         139.469         139.449         139.516         139.485         139.443    
          139.450         139.458         139.457         139.481         139.509         139.470         139.490         139.560         139.603         139.526    
          139.563         139.675         139.733         139.620         139.674         139.826         139.924         139.759         139.841         140.047    
          140.193         139.961         140.099         140.363         140.558         140.263         140.451         140.772         140.993         140.664    
          140.899         141.302         141.823         142.360         142.886         143.382         143.840         144.267         144.655         145.003    
          145.325         145.630         145.920         146.198         146.453         146.678         146.879         147.063         147.232         147.385    
          147.506         147.588         147.612         147.583         147.527         147.460         147.385         147.313         147.248         147.195    
          147.160         147.146         143.436         143.533         143.639         143.750         143.862         143.969         144.068         144.157    
          144.231         144.290         144.329         144.346         144.338         144.304         144.241         144.150         144.030         143.882    
          143.706         143.497         143.261         143.003         142.718         142.415         142.097         141.767         141.432         141.098    
          140.752         140.412         140.083         139.817         139.635         139.543         139.520         139.546         139.610         139.733    
          139.904         140.031         139.879         139.982         140.187         140.363         140.139         140.287         140.570         140.799    
          140.492         140.713         141.046         141.244         140.947         141.183         141.611         142.156         142.687         143.187    
          143.650         144.076         144.462         144.809         145.134         145.445         145.742         146.023         146.276         146.492    
          146.679         146.845         146.995         147.137         147.249         147.324         147.350         147.322         147.267         147.197    
          147.123         147.054         146.992         146.943         146.909         146.891         143.605         143.699         143.801         143.907    
          144.014         144.117         144.213         144.300         144.372         144.427         144.461         144.471         144.454         144.409    
          144.335         144.232         144.101         143.943         143.758         143.541         143.305         143.049         142.772         142.473    
          142.162         141.838         141.514         141.185         140.844         140.507         140.203         139.971         139.799         139.699    
          139.657         139.665         139.737         139.896         140.151         140.437         140.647         140.400         140.598         140.873    
          141.096         140.828         141.029         141.445         141.978         142.502         142.997         143.454         143.872         144.250    
          144.592         144.915         145.229         145.533         145.819         146.072         146.285         146.459         146.608         146.736    
          146.850         146.950         147.015         147.033         147.005         146.955         146.889         146.823         146.762         146.708    
          146.667         146.636         146.616         143.767         143.856         143.952         144.053         144.156         144.257         144.351    
          144.436         144.505         144.555         144.583         144.585         144.558         144.504         144.421         144.311         144.173    
          144.012         143.822         143.607         143.375         143.128         142.869         142.579         142.276         141.964         141.649    
          141.318         140.977         140.645         140.361         140.128         139.951         139.837         139.783         139.800         139.913    
          140.083         140.196         140.077         140.200         140.368         140.550         140.355         140.528         140.845         141.321    
          141.825         142.331         142.814         143.256         143.659         144.024         144.356         144.668         144.973         145.279    
          145.569         145.822         146.033         146.202         146.336         146.445         146.532         146.611         146.662         146.671    
          146.640         146.590         146.534         146.479         146.429         146.386         146.354         146.329         146.314         143.918    
          144.000         144.091         144.189         144.290         144.389         144.481         144.562         144.628         144.673         144.693    
          144.686         144.652         144.591         144.504         144.391         144.255         144.093         143.909         143.706         143.482    
          143.255         143.011         142.734         142.442         142.141         141.822         141.480         141.126         140.788         140.499    
          140.253         140.064         139.943         139.906         139.972         140.095         140.206         140.116         140.211         140.350    
          140.510         140.351         140.504         140.780         141.219         141.690         142.172         142.636         143.060         143.444    
          143.789         144.103         144.396         144.680         144.965         145.245         145.501         145.714         145.880         146.008    
          146.106         146.178         146.232         146.262         146.264         146.234         146.185         146.135         146.093         146.056    
          146.028         146.007         145.991         145.981         144.057         144.135         144.222         144.318         144.416         144.512    
          144.601         144.679         144.740         144.777         144.789         144.775         144.736         144.672         144.586         144.476    
          144.344         144.192         144.022         143.835         143.631         143.424         143.193         142.930         142.652         142.354    
          142.018         141.648         141.277         140.929         140.617         140.346         140.136         140.036         140.058         140.193    
          140.362         140.499         140.371         140.501         140.737         141.131         141.569         142.022         142.463         142.870    
          143.231         143.552         143.842         144.108         144.361         144.609         144.849         145.093         145.309         145.484    
          145.617         145.716         145.780         145.817         145.828         145.817         145.784         145.736         145.691         145.662    
          145.645         145.637         145.635         145.633         145.630         144.186         144.260         144.346         144.438         144.533    
          144.626         144.711         144.784         144.837         144.866         144.872         144.855         144.814         144.752         144.670    
          144.568         144.448         144.313         144.163         143.997         143.816         143.627         143.410         143.169         142.900    
          142.588         142.215         141.815         141.416         141.036         140.681         140.376         140.182         140.153         140.245    
          140.387         140.503         140.396         140.507         140.707         141.049         141.450         141.875         142.289         142.678    
          143.022         143.321         143.581         143.816         144.030         144.236         144.441         144.652         144.855         145.037    
          145.178         145.280         145.342         145.370         145.371         145.344         145.304         145.254         145.219         145.204    
          145.209         145.227         145.247         145.263         145.269         144.308         144.381         144.463         144.551         144.642    
          144.730         144.810         144.874         144.919         144.943         144.945         144.926         144.888         144.831         144.758    
          144.670         144.569         144.455         144.328         144.188         144.032         143.855         143.653         143.421         143.141    
          142.797         142.376         141.939         141.515         141.079         140.667         140.363         140.261         140.303         140.409    
          140.508         140.420         140.512         140.684         140.981         141.332         141.722         142.110         142.476         142.800    
          143.078         143.313         143.516         143.701         143.877         144.059         144.237         144.414         144.578         144.716    
          144.820         144.884         144.913         144.904         144.866         144.810         144.763         144.738         144.738         144.762    
          144.811         144.857         144.895         144.914         144.426         144.494         144.572         144.656         144.741         144.822    
          144.894         144.951         144.990         145.010         145.011         144.994         144.960         144.913         144.854         144.783    
          144.702         144.610         144.506         144.386         144.241         144.066         143.865         143.616         143.297         142.890    
          142.445         141.990         141.487         140.979         140.589         140.390         140.377         140.439         140.515         140.458    
          140.524         140.658         140.914         141.224         141.569         141.922         142.254         142.553         142.806         143.018    
          143.202         143.370         143.530         143.684         143.834         143.989         144.145         144.282         144.392         144.537    
          144.573         144.368         144.380         144.594         144.599         144.399         144.404         144.591         144.577         144.399    
          144.387         144.549         144.521         144.360         144.333         144.481         144.460         144.298         144.273         144.436    
          144.422         144.246         144.232         144.411         144.410         144.220         144.220         144.414         144.421         144.226    
          144.235         144.437         144.448         144.254         144.292         144.417         144.489         144.546         144.578         144.536    
          144.600         144.673         144.751         144.829         144.903         144.967         145.018         145.053         145.070         145.071    
          145.059         145.033         144.997         144.952         144.897         144.832         144.755         144.660         144.541         144.388    
          144.201         143.964         143.660         143.270         142.824         142.382         141.854         141.297         140.840         140.576    
          140.488         140.495         140.537         140.524         140.555         140.634         140.839         141.114         141.425         141.739    
          142.034         142.299         142.523         142.715         142.888         143.048         143.190         143.323         143.465         143.650    
          143.728         143.507         143.570         143.823         143.891         143.655         143.720         143.974         144.031         143.804    
          143.860         144.095         144.136         143.928         143.971         144.176         144.191         144.021         144.055         144.147    
          144.145         144.110         144.059         144.017         144.057         144.062         143.954         143.944         144.067         144.078    
          143.944         143.951         144.095         144.122         143.967         143.986         144.153         144.173         144.014         144.056    
          144.167         144.235         144.281         144.638         144.697         144.763         144.835         144.906         144.973         145.031    
          145.077         145.108         145.125         145.129         145.121         145.104         145.079         145.045         145.001         144.944    
          144.866         144.761         144.620         144.435         144.196         143.893         143.531         143.097         142.654         142.139    
          141.582         141.121         140.799         140.635         140.588         140.707         140.651         140.569         140.578         140.611    
          140.605         140.618         140.761         140.994         141.272         141.551         141.813         142.055         142.263         142.438    
          142.595         142.745         142.882         143.049         143.120         142.932         142.995         143.205         143.268         143.076    
          143.139         143.348         143.412         143.227         143.298         143.471         143.616         143.737         143.825         143.876    
          143.891         143.876         143.844         143.814         143.797         143.797         143.820         143.893         143.929         143.817    
          143.833         143.962         143.981         143.860         143.894         143.984         144.051         144.730         144.783         144.843    
          144.908         144.973         145.035         145.088         145.129         145.159         145.176         145.183         145.182         145.173    
          145.156         145.127         145.081         145.014         144.917         144.778         144.583         144.334         144.036         143.700    
          143.301         142.852         142.368         141.847         141.381         141.016         140.804         140.726         140.870         140.782    
          140.660         140.597         140.655         140.852         141.096         141.351         141.580         141.797         141.998         142.171    
          142.322         142.471         142.641         142.712         142.529         142.599         142.796         142.864         142.690         142.766    
          142.936         143.093         143.245         143.390         143.514         143.605         143.663         143.690         143.693         143.681    
          143.667         143.659         143.662         143.679         143.711         143.773         143.801         143.716         143.730         143.826    
          143.841         143.747         143.759         143.862         143.767         144.811         144.858         144.912         144.971         145.032    
          145.088         145.137         145.177         145.206         145.225         145.236         145.240         145.237         145.221         145.184    
          145.124         145.027         144.883         144.687         144.435         144.135         143.796         143.418         143.001         142.553    
          142.080         141.627         141.231         140.964         140.852         141.026         140.930         140.754         140.689         140.815    
          140.724         140.592         140.565         140.692         140.895         141.109         141.321         141.521         141.712         141.887    
          142.045         142.207         142.391         142.470         142.295         142.378         142.557         142.742         142.915         143.068    
          143.211         143.333         143.428         143.491         143.529         143.548         143.555         143.558         143.561         143.571    
          143.588         143.613         143.641         143.661         143.657         144.880         144.921         144.971         145.026         145.082    
          145.135         145.181         145.219         145.249         145.270         145.285         145.291         145.284         145.256         145.199    
          145.102         144.958         144.759         144.507         144.211         143.878         143.514         143.122         142.705         142.274    
          141.847         141.447         141.104         140.879         140.765         140.926         140.804         140.608         140.495         140.546    
          140.684         140.859         141.041         141.228         141.418         141.599         141.777         141.971         142.060         141.866    
          141.957         142.170         142.258         142.073         142.166         142.365         142.574         142.766         142.927         143.067    
          143.186         143.281         143.351         143.400         143.433         143.456         143.473         143.489         143.507         143.528    
          143.552         143.577         143.598         143.606         144.938         144.975         145.021         145.072         145.125         145.175    
          145.219         145.256         145.286         145.308         145.321         145.321         145.298         145.246         145.150         145.005    
          144.807         144.557         144.266         143.945         143.598         143.228         142.848         142.454         142.054         141.661    
          141.282         140.999         140.855         141.051         140.928         140.710         140.611         140.770         140.641         140.487    
          140.444         140.510         140.636         140.792         140.986         141.073         140.884         140.968         141.185         141.263    
          141.075         141.155         141.372         141.453         141.266         141.352         141.564         141.644         141.468         141.554    
          141.750         141.847         141.674         141.772         141.980         142.216         142.445         142.647         142.813         142.951    
          143.068         143.164         143.239         143.297         143.342         143.377         143.407         143.434         143.459         143.486    
          143.514         143.539         143.568         143.581         144.986         145.020         145.063         145.111         145.160         145.206    
          145.247         145.282         145.310         145.328         145.332         145.316         145.265         145.171         145.028         144.831    
          144.585         144.303         143.996         143.668         143.325         142.976         142.615         142.245         141.871         141.488    
          141.113         140.835         140.686         140.883         140.755         140.561         140.485         140.616         140.514         140.406    
          140.408         140.497         140.550         140.456         140.509         140.632         140.697         140.586         140.651         140.790    
          140.873         140.748         140.828         140.991         141.195         141.415         141.642         141.887         142.128         142.357    
          142.556         142.720         142.858         142.972         143.070         143.150         143.215         143.269         143.314         143.354    
          143.389         143.424         143.454         143.490         143.510         145.027         145.057         145.096         145.140         145.184    
          145.226         145.263         145.293         145.314         145.320         145.304         145.257         145.165         145.023         144.828    
          144.589         144.320         144.034         143.729         143.412         143.087         142.756         142.414         142.064         141.699    
          141.308         140.941         140.685         140.566         140.748         140.648         140.476         140.432         140.545         140.495    
          140.414         140.418         140.462         140.462         140.452         140.502         140.488         140.525         140.608         140.776    
          140.968         141.179         141.395         141.622         141.856         142.084         142.302         142.492         142.649         142.784    
          142.898         142.995         143.079         143.150         143.211         143.263         143.311         143.353         143.399         143.424    
          145.061         145.087         145.120         145.157         145.195         145.230         145.259         145.279         145.284         145.268    
          145.220         145.130         144.987         144.797         144.573         144.328         144.065         143.783         143.490         143.186    
          142.878         142.562         142.231         141.887         141.511         141.142         140.848         140.651         140.571         140.600    
          140.707         140.857         141.035         141.229         141.428         141.641         141.855         142.062         142.266         142.448    
          142.598         142.728         142.841         142.937         143.022         143.101         143.166         143.221         143.281         143.315    
          145.085         145.104         145.130         145.160         145.189         145.213         145.230         145.231         145.211         145.160    
          145.072         144.936         144.758         144.554         144.333         144.094         143.838         143.569         143.283         142.988    
          142.685         142.367         142.039         141.684         141.330         141.041         140.839         140.743         140.751         140.833    
          140.960         141.119         141.292         141.475         141.669         141.860         142.043         142.230         142.413         142.562    
          142.690         142.800         142.893         142.974         143.069         143.136         143.178         145.094         145.105         145.124    
          145.144         145.162         145.171         145.167         145.142         145.090         145.005         144.881         144.722         144.540    
          144.342         144.127         143.898         143.654         143.386         143.081         142.780         142.476         142.151         141.801    
          141.461         141.180         140.978         140.874         140.866         140.929         141.038         141.177         141.335         141.505    
          141.683         141.854         142.016         142.182         142.388         142.542         142.670         142.777         142.861         142.916    
          145.089         145.092         145.101         145.110         145.112         145.103         145.075         145.024         144.945         144.834    
          144.696         144.537         144.362         144.171         143.965         143.738         143.496         143.154         142.842         142.540    
          142.219         141.868         141.535         141.259         141.053         140.944         140.928         140.980         141.078         141.208    
          141.357         141.520         141.688         141.845         141.982         142.081         145.069         145.065         145.063         145.059    
          145.047         145.019         144.971         144.899         144.802         144.683         144.546         144.395         144.225         144.046    
          143.819         143.662         145.039         145.025         145.017         145.005         144.979         144.935         144.869         144.782    
          144.681         144.567         144.441         144.279         144.165         144.998         144.993         144.980         144.956         144.916    
          144.855         144.773         144.682         144.592         144.520    

 HEAD WILL BE SAVED ON UNIT 1020 AT END OF TIME STEP    1, STRESS PERIOD    1

 SFR PACKAGE (SFR) STAGES FOR EACH CONTROL VOLUME   PERIOD      1   STEP        1
 -------------------------------------------------------------------------------------------------------------
                                                                                      STREAMBED    STREAMBED  
   NUMBER   CELLID                  STAGE        DEPTH        WIDTH       GWF HEAD   CONDUCTANCE    GRADIENT  
 -------------------------------------------------------------------------------------------------------------
     1      (2,2565)              143.61       0.0000       0.0000       143.55       1016.1       5.84229E-02
     2      (2,2563)              143.50       1.08311E-03  2.0000       143.51       319.68      -1.30173E-02
     3      (2,2561)              143.45       4.61512E-03  2.0000       143.52       615.17      -6.22288E-02
     4      (2,2560)              143.46       8.04951E-03  2.0000       143.49       955.58      -3.44227E-02
     5      (2,2557)              143.46       9.71862E-03  2.0000       143.48       490.75      -2.15231E-02
     6      (2,2485)              143.46       1.10810E-02  2.0000       143.52       478.66      -6.02551E-02
     7      (2,2484)              143.43       1.29841E-02  2.0000       143.46       1093.8      -2.90895E-02
     8      (2,2481)              143.34       1.40640E-02  2.0000       143.43       60.480      -8.92650E-02
     9      (2,2479)              143.35       1.60087E-02  2.0000       143.42       862.27      -7.71429E-02
     10     (2,2478)              143.35       1.85684E-02  2.0000       143.39       978.05      -3.82127E-02
     11     (2,2399)              143.35       2.03238E-02  2.0000       143.46       371.52      -0.10684    
     12     (2,2396)              143.35       2.16681E-02  2.0000       143.39       584.06      -3.83937E-02
     13     (2,2394)              143.30       2.41810E-02  2.0000       143.40       998.78      -0.10081    
     14     (2,2393)              143.28       2.62787E-02  2.0000       143.37       98.496      -9.00206E-02
     15     (2,2304)              143.17       2.96671E-02  2.0000       143.37       917.57      -0.19692    
     16     (2,2301)              143.18       3.51016E-02  2.0000       143.34       910.66      -0.16962    
     17     (2,2300)              143.18       3.76950E-02  2.0000       143.46       65.664      -0.28117    
     18     (2,2389)              143.18       3.90374E-02  2.0000       143.27       812.16      -9.14248E-02
     19     (2,2386)              143.11       4.15896E-02  2.0000       143.24       870.91      -0.12393    
     20     (2,2385)              143.11       4.36543E-02  2.0000       143.28       278.21      -0.16186    
     21     (2,2296)              143.12       4.59548E-02  2.0000       143.33       603.07      -0.21749    
     22     (2,2293)              143.12       4.95519E-02  2.0000       143.29       893.38      -0.17495    
     23     (2,2292)              143.12       5.32307E-02  2.0000       143.30       884.74      -0.17229    
     24     (2,2289)              143.13       5.70741E-02  2.0000       143.33       910.66      -0.20388    
     25     (2,2288)              143.13       5.97219E-02  2.0000       143.50       153.79      -0.36624    
     26     (2,2286)              143.09       6.40294E-02  2.0000       143.55       781.06      -0.45168    
     27     (1,2283)              143.10       7.25740E-02  2.0000       143.68       889.92      -0.57752    
     28     (1,2282)              143.11       8.19361E-02  2.0000       143.70       877.82      -0.58896    
     29     (1,2279)              143.12       9.08989E-02  2.0000       143.74       884.74      -0.61779    
     30     (1,2278)              143.13       9.98813E-02  2.0000       143.79       896.83      -0.65999    
     31     (1,2275)              143.14       0.10549      2.0000       144.03       172.80      -0.89858    
     32     (1,2277)              143.14       0.10945      2.0000       143.67       730.94      -0.52999    
     33     (1,2276)              143.15       0.11542      2.0000       143.65       908.93      -0.50282    
     34     (1,2273)              143.15       0.12179      2.0000       143.69       891.65      -0.53434    
     35     (1,2272)              143.16       0.12692      2.0000       143.82       454.46      -0.65949    
     36     (1,2376)              143.16       0.13023      2.0000       143.64       442.37      -0.47867    
     37     (1,2373)              143.16       0.13380      2.0000       143.56       881.28      -0.39795    
     38     (1,2372)              143.17       0.13790      2.0000       143.52       881.28      -0.34945    
     39     (1,2369)              143.15       0.14134      2.0000       143.43       902.02      -0.28161    
     40     (1,2368)              142.70       0.14559      2.0000       143.26       806.98      -0.56094    
     41     (1,2370)              142.70       0.14849      2.0000       143.16       82.944      -0.46552    
     42     (1,2367)              142.20       0.15150      2.0000       142.73       902.02      -0.52825    
     43     (1,2366)              141.91       0.15718      2.0000       142.48       898.56      -0.57399    
     44     (1,2363)              141.38       0.16392      2.0000       142.18       876.10      -0.79196    
     45     (1,2362)              141.15       0.17215      2.0000       142.04       926.21      -0.89216    
     46     (1,2462)              140.80       0.17654      2.0000       142.05       5.1840      -1.2553     
     47     (1,2459)              140.61       0.18143      2.0000       141.49       1069.6      -0.87489    
     48     (1,2458)              140.62       0.18801      2.0000       141.61       362.88      -0.99079    
     49     (1,2460)              140.24       0.19317      2.0000       141.19       713.66      -0.95124    
     50     (1,2457)              140.25       0.19962      2.0000       141.16       705.02      -0.91315    
     51     (1,2538)              139.92       0.20482      2.0000       141.00       412.99      -1.0755     
     52     (1,2537)              139.93       0.21093      2.0000       140.80       983.23      -0.87348    
     53     (1,2539)              139.78       0.21587      2.0000       140.89       190.08      -1.1148     
     54     (1,2536)              139.76       0.22030      2.0000       140.62       886.46      -0.85966    
     55     (1,2614)              139.62       0.22614      2.0000       140.47       635.90      -0.85394    
     56     (1,2613)              139.59       0.23028      2.0000       140.50       435.46      -0.90916    
     57     (1,2615)              139.44       0.23504      2.0000       140.16       955.58      -0.72836    
     58     (1,2682)              139.26       0.24100      2.0000       140.04       884.74      -0.78394    
     59     (1,2684)              139.21       0.24616      2.0000       140.19       539.14      -0.98020    
     60     (1,2681)              139.14       0.25004      2.0000       140.04       447.55      -0.90002    
     61     (1,2762)              139.14       0.25446      2.0000       139.92       857.09      -0.77903    
     62     (1,2761)              139.10       0.25841      2.0000       139.93       364.61      -0.82663    
     63     (1,2763)              139.10       0.26162      2.0000       139.88       627.26      -0.78285    
     64     (1,2760)              138.92       0.26610      2.0000       139.56       978.05      -0.64236    
     65     (1,2759)              138.85       0.27083      2.0000       139.49       883.01      -0.64374    
     66     (1,2756)              138.77       0.27530      2.0000       139.40       903.74      -0.63327    
     67     (1,2755)              138.61       0.27997      2.0000       139.32       896.83      -0.70844    
     68     (1,2752)              138.61       0.28482      2.0000       139.31       910.66      -0.69528    
     69     (1,2751)              138.62       0.28990      2.0000       139.39       926.21      -0.76578    
     70     (1,2748)              138.62       0.29272      2.0000       139.77       38.016      -1.1475     
     71     (1,2831)              138.63       0.29520      2.0000       139.30       926.21      -0.67115    
     72     (1,2830)              138.63       0.29969      2.0000       139.27       927.94      -0.63777    
     73     (1,2827)              138.63       0.30288      2.0000       139.46       336.96      -0.82883    
     74     (1,2829)              138.64       0.30534      2.0000       139.31       585.79      -0.67711    
     75     (1,2828)              138.64       0.30864      2.0000       139.20       910.66      -0.56441    
     76     (1,2825)              138.64       0.31236      2.0000       139.21       910.66      -0.57253    
     77     (1,2824)              138.65       0.31504      2.0000       139.37       321.41      -0.72212    
     78     (1,2895)              138.65       0.31722      2.0000       139.29       589.25      -0.64664    
     79     (1,2892)              138.65       0.32020      2.0000       139.16       900.29      -0.51415    
     80     (1,2891)              138.65       0.32339      2.0000       139.14       927.94      -0.48241    
     81     (1,2888)              138.66       0.32638      2.0000       139.13       872.64      -0.47004    
     82     (1,2887)              138.66       0.32972      2.0000       139.13       1164.7      -0.47442    
     83     (1,2884)              138.66       0.33217      2.0000       139.51       190.08      -0.84659    
     84     (1,2819)              138.66       0.33453      2.0000       139.17       1031.6      -0.51016    
     85     (1,2818)              138.58       0.33687      2.0000       139.42       190.08      -0.84346    
     86     (1,2816)              138.58       0.33927      2.0000       139.11       1031.6      -0.52959    
     87     (1,2813)              138.32       0.34173      2.0000       139.29       190.08      -0.96377    
     88     (1,2739)              138.32       0.34437      2.0000       138.91       1031.6      -0.58344    
     89     (1,2738)              137.91       0.34713      2.0000       139.09       190.08      -1.1814     
     90     (1,2736)              137.91       0.35043      2.0000       138.65       1031.6      -0.74357    
     91     (1,2733)              137.56       0.35379      2.0000       138.89       190.08      -1.3258     
     92     (1,2667)              137.57       0.35739      2.0000       138.39       1031.6      -0.81848    
     93     (1,2666)              137.56       0.36089      2.0000       138.76       190.08      -1.1957     
     94     (1,2664)              137.47       0.36435      2.0000       138.24       1099.0      -0.76743    
     95     (1,2600)              137.27       0.36844      2.0000       138.28       421.63      -1.0127     
     96     (1,2597)              137.00       0.37220      2.0000       138.17       644.54      -1.1646     
     97     (1,2595)              137.01       0.37732      2.0000       137.89       981.50      -0.88252    
     98     (1,2520)              137.01       0.38104      2.0000       138.08       297.22      -1.0669     
     99     (1,2519)              137.01       0.38458      2.0000       138.03       803.52      -1.0144     
    100     (1,2517)              137.02       0.38969      2.0000       137.87       983.23      -0.84659    
    101     (1,2436)              137.02       0.39494      2.0000       137.86       1054.1      -0.83240    
    102     (1,2434)              137.03       0.39955      2.0000       138.03       632.45      -1.0024     
    103     (1,2435)              137.03       0.40413      2.0000       137.73       1263.2      -0.69785    
    104     (1,2438)              137.04       0.40784      2.0000       138.08       336.96      -1.0419     
    105     (1,2344)              137.04       0.41119      2.0000       137.89       910.66      -0.84616    
    106     (1,2342)              137.05       0.41512      2.0000       137.95       615.17      -0.90070    
    107     (1,2343)              137.05       0.41819      2.0000       138.11       457.92      -1.0653     
    108     (1,2251)              137.02       0.42208      2.0000       137.84       1016.1      -0.82249    
    109     (1,2249)              136.92       0.42676      2.0000       137.81       864.00      -0.89033    
    110     (1,2183)              136.79       0.43151      2.0000       137.72       934.85      -0.93129    
    111     (1,2181)              136.74       0.43643      2.0000       137.71       864.00      -0.97275    
    112     (1,2114)              136.74       0.44125      2.0000       137.72       872.64      -0.97472    
    113     (1,2112)              136.75       0.44609      2.0000       137.74       867.46      -0.98944    
    114     (1,2044)              136.75       0.44993      2.0000       137.93       430.27      -1.1769     
    115     (1,2043)              136.75       0.45281      2.0000       137.72       546.05      -0.96235    
    116     (1,2041)              136.74       0.45667      2.0000       137.58       1021.2      -0.84064    
    117     (1,1972)              136.74       0.45945      2.0000       137.71       148.61      -0.97353    
    118     (1,1969)              136.51       0.46213      2.0000       137.39       943.49      -0.87749    
    119     (1,1967)              136.52       0.46551      2.0000       137.30       508.03      -0.78619    
    120     (1,1966)              136.45       0.46809      2.0000       137.41       565.06      -0.96056    
    121     (1,1893)              136.37       0.47146      2.0000       137.19       855.36      -0.81388    
    122     (1,1894)              136.37       0.47381      2.0000       137.21       200.45      -0.84021    
    123     (1,1892)              136.38       0.47578      2.0000       137.01       888.19      -0.63179    
    124     (1,1895)              136.37       0.47897      2.0000       137.07       888.19      -0.69873    
    125     (1,1896)              136.37       0.48267      2.0000       137.40       739.58      -1.0232     
    126     (1,1819)              136.38       0.48520      2.0000       137.30       205.63      -0.92696    
    127     (1,1822)              136.37       0.48859      2.0000       137.54       924.48      -1.1703     
    128     (1,1820)              136.13       0.49432      2.0000       137.33       907.20      -1.1965     
    129     (1,1745)              136.14       0.50113      2.0000       137.45       1152.6      -1.3105     
    130     (1,1742)              136.07       0.50727      2.0000       137.03       888.19      -0.95880    
    131     (1,1741)              136.07       0.51121      2.0000       136.80       926.21      -0.72710    
    132     (1,1738)              135.98       0.51454      2.0000       136.67       910.66      -0.68562    
    133     (1,1737)              135.99       0.51700      2.0000       136.76       433.73      -0.76958    
    134     (1,1735)              135.96       0.51923      2.0000       136.59       860.54      -0.62878    
    135     (1,1732)              135.96       0.52106      2.0000       136.73       229.82      -0.77365    
    136     (1,1653)              135.90       0.52287      2.0000       136.44       993.60      -0.53830    
    137     (1,1651)              135.89       0.52561      2.0000       136.41       1054.1      -0.51995    
    138     (1,1654)              135.89       0.52833      2.0000       136.49       870.91      -0.60650    
    139     (1,1655)              135.85       0.53169      2.0000       136.68       974.59      -0.82961    
    140     (1,1658)              135.85       0.53473      2.0000       137.33       273.02      -1.4783     
    141     (1,1548)              135.86       0.53881      2.0000       137.22       903.74      -1.3658     
    142     (1,1546)              135.86       0.54452      2.0000       137.74       571.97      -1.8708     
    143     (1,1543)              135.87       0.54950      2.0000       137.14       746.50      -1.2743     
    144     (1,1453)              135.87       0.55358      2.0000       137.96       342.14      -2.0905     
    145     (1,1452)              135.88       0.55860      2.0000       137.35       914.11      -1.4690     
    146     (1,1449)              135.88       0.56481      2.0000       137.23       914.11      -1.3421     
    147     (1,1448)              135.89       0.56897      2.0000       137.55       302.40      -1.6561     
    148     (1,1538)              135.85       0.57173      2.0000       136.83       668.74      -0.97887    
    149     (1,1535)              135.86       0.57560      2.0000       136.85       969.41      -0.99606    
    150     (1,1537)              135.84       0.57950      2.0000       136.55       955.58      -0.70743    
    151     (1,1647)              135.84       0.58235      2.0000       136.42       910.66      -0.57988    
    152     (1,1649)              135.84       0.58496      2.0000       136.47       931.39      -0.62314    
    153     (1,1648)              135.85       0.58774      2.0000       136.52       896.83      -0.67175    
    154     (1,1645)              135.80       0.59089      2.0000       136.59       940.03      -0.78717    
    155     (1,1644)              135.72       0.59407      2.0000       136.69       648.00      -0.96171    
    156     (1,1642)              135.66       0.59660      2.0000       136.76       421.63      -1.1042     
    157     (1,1639)              135.66       0.59989      2.0000       136.68       933.12      -1.0188     
    158     (1,1638)              135.66       0.60322      2.0000       136.89       400.90      -1.2276     
    159     (1,1640)              135.67       0.60588      2.0000       136.79       587.52      -1.1255     
    160     (1,1637)              135.67       0.60961      2.0000       136.73       910.66      -1.0603     
    161     (1,1636)              135.67       0.61398      2.0000       136.76       872.64      -1.0841     
    162     (1,1633)              135.68       0.61831      2.0000       136.79       865.73      -1.1070     
    163     (1,1632)              135.67       0.62269      2.0000       136.79       870.91      -1.1182     
    164     (1,1629)              135.68       0.62707      2.0000       136.79       874.37      -1.1092     
    165     (1,1628)              135.68       0.63139      2.0000       136.79       865.73      -1.1054     
    166     (1,1625)              135.64       0.63573      2.0000       136.77       870.91      -1.1323     
    167     (1,1624)              135.61       0.64017      2.0000       136.76       879.55      -1.1485     
    168     (1,1621)              135.61       0.64472      2.0000       136.81       881.28      -1.1919     
    169     (1,1620)              135.62       0.64951      2.0000       136.87       900.29      -1.2478     
    170     (1,1617)              135.62       0.65375      2.0000       137.29       487.30      -1.6642     
    171     (1,1615)              135.56       0.65685      2.0000       136.88       461.38      -1.3217     
    172     (1,1614)              135.56       0.66063      2.0000       136.75       946.94      -1.1888     
    173     (1,1611)              135.56       0.66499      2.0000       137.07       589.25      -1.5073     
    174     (1,1525)              135.56       0.66802      2.0000       136.83       406.08      -1.2731     
    175     (1,1524)              135.44       0.67160      2.0000       136.63       965.95      -1.1859     
    176     (1,1521)              135.45       0.67607      2.0000       137.08       577.15      -1.6315     
    177     (1,1519)              135.45       0.67923      2.0000       136.71       428.54      -1.2604     
    178     (1,1518)              135.45       0.68271      2.0000       136.66       905.47      -1.2082     
    179     (1,1515)              135.46       0.68728      2.0000       137.43       539.14      -1.9722     
    180     (1,1431)              135.46       0.69192      2.0000       136.77       864.00      -1.3098     
    181     (1,1429)              135.47       0.69637      2.0000       136.74       774.14      -1.2757     
    182     (1,1432)              135.43       0.69957      2.0000       136.51       502.85      -1.0756     
    183     (1,1353)              135.42       0.70256      2.0000       136.41       907.20      -0.98548    
    184     (1,1351)              135.43       0.70622      2.0000       136.40       883.01      -0.97758    
    185     (1,1274)              135.43       0.70983      2.0000       136.40       902.02      -0.97284    
    186     (1,1272)              135.42       0.71341      2.0000       136.37       900.29      -0.94964    
    187     (1,1194)              135.10       0.71731      2.0000       136.22       927.94      -1.1192     
    188     (1,1192)              134.99       0.72164      2.0000       136.25       853.63      -1.2600     
    189     (1,1189)              134.99       0.72427      2.0000       136.69       122.69      -1.6987     
    190     (1,1111)              134.90       0.72719      2.0000       136.13       991.87      -1.2340     
    191     (1,1109)              134.90       0.73135      2.0000       136.21       628.99      -1.3047     
    192     (1,1108)              134.90       0.73417      2.0000       136.50       361.15      -1.5926     
    193     (1,1030)              134.91       0.73757      2.0000       136.04       979.78      -1.1288     
    194     (1,1028)              134.91       0.74195      2.0000       136.11       889.92      -1.2029     
    195     (1,950)               134.91       0.74471      2.0000       136.53       186.62      -1.6201     
    196     (1,947)               134.82       0.74741      2.0000       136.10       813.89      -1.2868     
    197     (1,945)               134.82       0.75101      2.0000       136.21       546.05      -1.3873     
    198     (1,944)               134.82       0.75467      2.0000       136.10       848.45      -1.2725     
    199     (1,866)               134.83       0.75785      2.0000       136.30       354.24      -1.4752     
    200     (1,863)               134.83       0.76100      2.0000       136.16       803.52      -1.3328     
    201     (1,861)               134.83       0.76474      2.0000       136.19       608.26      -1.3526     
    202     (1,860)               134.84       0.76789      2.0000       136.33       521.86      -1.4914     
    203     (1,782)               134.84       0.77152      2.0000       136.14       822.53      -1.3025     
    204     (1,779)               134.83       0.77446      2.0000       136.55       252.29      -1.7173     
    205     (1,777)               134.84       0.77815      2.0000       136.13       1130.1      -1.2915     
    206     (1,700)               134.84       0.78103      2.0000       136.59       12.096      -1.7446     
    207     (1,699)               134.84       0.78389      2.0000       136.12       1138.8      -1.2763     
    208     (1,697)               134.85       0.78722      2.0000       136.43       169.34      -1.5868     
    209     (1,694)               134.85       0.79007      2.0000       136.15       927.94      -1.3008     
    210     (1,618)               134.78       0.79369      2.0000       136.18       483.84      -1.3990     
    211     (1,617)               134.79       0.79655      2.0000       136.19       578.88      -1.4076     
    212     (1,615)               134.79       0.80009      2.0000       136.00       855.36      -1.2069     
    213     (1,612)               134.79       0.80310      2.0000       136.30       361.15      -1.5058     
    214     (1,537)               134.80       0.80611      2.0000       135.91       936.58      -1.1105     
    215     (1,535)               134.63       0.80954      2.0000       135.85       627.26      -1.2196     
    216     (1,534)               134.63       0.81320      2.0000       135.83       976.32      -1.1976     
    217     (1,531)               134.64       0.81546      2.0000       136.43       15.552      -1.7904     
    218     (1,457)               134.64       0.81773      2.0000       135.76       1042.0      -1.1267     
    219     (1,455)               134.64       0.82187      2.0000       135.65       1024.7      -1.0049     
    220     (1,382)               134.64       0.82479      2.0000       136.00       388.80      -1.3560     
    221     (1,381)               134.65       0.82762      2.0000       135.71       927.94      -1.0613     
    222     (1,378)               134.65       0.83120      2.0000       135.70       889.92      -1.0490     
    223     (1,377)               134.65       0.83485      2.0000       135.77       919.30      -1.1188     
    224     (1,375)               134.66       0.83716      2.0000       135.99       160.70      -1.3354     
    225     (1,372)               134.66       0.83965      2.0000       135.75       1038.5      -1.0873     
    226     (1,371)               134.66       0.84260      2.0000       136.09       326.59      -1.4300     
    227     (1,299)               134.66       0.84494      2.0000       135.81       701.57      -1.1422     
    228     (1,296)               134.67       0.84829      2.0000       135.79       907.20      -1.1248     
    229     (1,294)               134.67       0.85045      2.0000       135.98       119.23      -1.3114     
    230     (1,293)               134.67       0.85245      2.0000       135.69       921.02      -1.0133     
    231     (1,290)               134.68       0.85581      2.0000       135.70       884.74      -1.0225     
    232     (1,289)               134.68       0.85936      2.0000       135.83       908.93      -1.1476     
    233     (1,286)               134.68       0.86160      2.0000       136.30       114.05      -1.6166     
    234     (1,250)               134.68       0.86345      2.0000       135.74       789.70      -1.0541     
    235     (1,249)               134.69       0.86679      2.0000       135.72       979.78      -1.0320     
    236     (1,246)               134.46       0.86971      2.0000       136.01       387.07      -1.5487     
    237     (1,244)               134.38       0.87214      2.0000       135.54       644.54      -1.1574     
    238     (1,243)               134.16       0.87548      2.0000       135.57       786.24      -1.4108     
    239     (1,209)               134.16       0.87843      2.0000       135.48       402.62      -1.3217     
    240     (1,206)               134.16       0.88128      2.0000       135.45       819.07      -1.2897     
    241     (1,204)               134.16       0.88407      2.0000       135.41       402.62      -1.2508     
    242     (1,203)               134.17       0.88677      2.0000       135.40       819.07      -1.2287     
    243     (1,171)               134.17       0.88943      2.0000       135.39       399.17      -1.2202     
    244     (1,168)               134.17       0.89234      2.0000       135.30       1017.8      -1.1300     
    245     (1,166)               134.17       0.89452      2.0000       135.54       57.024      -1.3672     
    246     (1,165)               134.18       0.89688      2.0000       135.25       1164.7      -1.0758     
    247     (1,135)               134.18       0.89923      2.0000       135.52       57.024      -1.3433     
    248     (1,132)               134.18       0.90150      2.0000       135.22       1164.7      -1.0362     
    249     (1,130)               134.18       0.90376      2.0000       135.49       57.024      -1.3076     
    250     (1,129)               134.19       0.90596      2.0000       135.20       1164.7      -1.0103     
    251     (1,101)               134.19       0.90816      2.0000       135.45       57.024      -1.2659     
    252     (1,98)                134.19       0.91030      2.0000       135.17       1164.7      -0.98457    
    253     (1,96)                134.19       0.91243      2.0000       135.42       57.024      -1.2227     
    254     (1,95)                134.19       0.91450      2.0000       135.15       1164.7      -0.95498    
    255     (1,69)                134.20       0.91656      2.0000       135.37       57.024      -1.1740     
    256     (1,66)                134.20       0.91857      2.0000       135.12       1178.5      -0.92434    
    257     (1,65)                134.20       0.92060      2.0000       135.70       48.384      -1.4962     
    258     (1,63)                134.19       0.92233      2.0000       135.06       1061.0      -0.86880    
    259     (1,60)                134.19       0.92460      2.0000       135.53       288.58      -1.3349     
    260     (1,36)                134.08       0.92676      2.0000       135.00       934.85      -0.92205    
    261     (1,35)                134.08       0.92908      2.0000       135.42       357.70      -1.3367     
    262     (1,33)                134.08       0.93106      2.0000       135.02       708.48      -0.94149    
    263     (1,30)                134.08       0.93358      2.0000       135.33       634.18      -1.2494     
    264     (1,8)                 134.09       0.93602      2.0000       135.15       589.25      -1.0640     
    265     (1,7)                 134.09       0.93864      2.0000       135.50       634.18      -1.4106     
    266     (1,5)                 134.09       0.94036      2.0000       135.66       69.120      -1.5686     
 -------------------------------------------------------------------------------------------------------------



 SFR PACKAGE - SUMMARY OF FLOWS FOR EACH CONTROL VOLUME   PERIOD      1   STEP        1
 ------------------------------------------------------------------------------------------------------------------------------------------------------------------------------
                                                                                                                                                                     PERCENT   
   NUMBER   CELLID                  INFLOW      OUTFLOW        GWF        RAINFALL   EVAPORATION     RUNOFF     EXT INFLOW  EXT OUTFLOW    STORAGE      IN - OUT    DIFFERENCE 
 ------------------------------------------------------------------------------------------------------------------------------------------------------------------------------
     1      (2,2565)              0.0000       0.0000       0.0000       0.0000       0.0000       0.0000       0.0000       0.0000       0.0000       0.0000       0.0000     
     2      (2,2563)              0.0000      -4.1614       4.1614       0.0000       0.0000       0.0000       0.0000       0.0000       0.0000       0.0000       0.0000     
     3      (2,2561)              4.1614      -42.443       38.281       0.0000       0.0000       0.0000       0.0000       0.0000       0.0000       0.0000       0.0000     
     4      (2,2560)              42.443      -75.336       32.894       0.0000       0.0000       0.0000       0.0000       0.0000       0.0000       0.0000       0.0000     
     5      (2,2557)              75.336      -85.899       10.563       0.0000       0.0000       0.0000       0.0000       0.0000       0.0000       0.0000       0.0000     
     6      (2,2485)              85.899      -114.74       28.841       0.0000       0.0000       0.0000       0.0000       0.0000       0.0000       0.0000       0.0000     
     7      (2,2484)              114.74      -146.56       31.819       0.0000       0.0000       0.0000       0.0000       0.0000       0.0000       0.0000       0.0000     
     8      (2,2481)              146.56      -151.96       5.3987       0.0000       0.0000       0.0000       0.0000       0.0000       0.0000       0.0000       0.0000     
     9      (2,2479)              151.96      -218.48       66.518       0.0000       0.0000       0.0000       0.0000       0.0000       0.0000       0.0000       0.0000     
     10     (2,2478)              218.48      -255.85       37.374       0.0000       0.0000       0.0000       0.0000       0.0000       0.0000       0.0000       0.0000     
     11     (2,2399)              255.85      -295.54       39.693       0.0000       0.0000       0.0000       0.0000       0.0000       0.0000       0.0000       0.0000     
     12     (2,2396)              295.54      -317.97       22.424       0.0000       0.0000       0.0000       0.0000       0.0000       0.0000       0.0000       0.0000     
     13     (2,2394)              317.97      -418.65       100.69       0.0000       0.0000       0.0000       0.0000       0.0000       0.0000       0.0000       0.0000     
     14     (2,2393)              418.65      -427.52       8.8667       0.0000       0.0000       0.0000       0.0000       0.0000       0.0000       0.0000       0.0000     
     15     (2,2304)              427.52      -608.20       180.68       0.0000       0.0000       0.0000       0.0000       0.0000       0.0000       0.0000       0.0000     
     16     (2,2301)              608.20      -762.67       154.47       0.0000       0.0000       0.0000       0.0000       0.0000       0.0000       0.0000       0.0000     
     17     (2,2300)              762.67      -781.13       18.463       0.0000       0.0000       0.0000       0.0000       0.0000       0.0000       0.0000       0.0000     
     18     (2,2389)              781.13      -855.38       74.252       0.0000       0.0000       0.0000       0.0000       0.0000       0.0000       0.0000       0.0000     
     19     (2,2386)              855.38      -963.31       107.93       0.0000       0.0000       0.0000       0.0000       0.0000       0.0000       0.0000       0.0000     
     20     (2,2385)              963.31      -1008.3       45.030       0.0000       0.0000       0.0000       0.0000       0.0000       0.0000       0.0000       0.0000     
     21     (2,2296)              1008.3      -1139.5       131.16       0.0000       0.0000       0.0000       0.0000       0.0000       0.0000       0.0000       0.0000     
     22     (2,2293)              1139.5      -1295.8       156.29       0.0000       0.0000       0.0000       0.0000       0.0000       0.0000       0.0000       0.0000     
     23     (2,2292)              1295.8      -1448.2       152.43       0.0000       0.0000       0.0000       0.0000       0.0000       0.0000       0.0000       0.0000     
     24     (2,2289)              1448.2      -1633.9       185.66       0.0000       0.0000       0.0000       0.0000       0.0000       0.0000       0.0000       0.0000     
     25     (2,2288)              1633.9      -1690.2       56.325       0.0000       0.0000       0.0000       0.0000       0.0000       0.0000       0.0000       0.0000     
     26     (2,2286)              1690.2      -2043.0       352.79       0.0000       0.0000       0.0000       0.0000       0.0000       0.0000       0.0000       0.0000     
     27     (1,2283)              2043.0      -2557.0       513.95       0.0000       0.0000       0.0000       0.0000       0.0000       0.0000       0.0000       0.0000     
     28     (1,2282)              2557.0      -3074.0       517.00       0.0000       0.0000       0.0000       0.0000       0.0000       0.0000       0.0000       0.0000     
     29     (1,2279)              3074.0      -3620.5       546.58       0.0000       0.0000       0.0000       0.0000       0.0000       0.0000       0.0000       0.0000     
     30     (1,2278)              3620.5      -4212.4       591.90       0.0000       0.0000       0.0000       0.0000       0.0000       0.0000       0.0000       0.0000     
     31     (1,2275)              4212.4      -4367.7       155.27       0.0000       0.0000       0.0000       0.0000       0.0000       0.0000       0.0000       0.0000     
     32     (1,2277)              4367.7      -4755.1       387.39       0.0000       0.0000       0.0000       0.0000       0.0000       0.0000       0.0000       0.0000     
     33     (1,2276)              4755.1      -5212.1       457.03       0.0000       0.0000       0.0000       0.0000       0.0000       0.0000       0.0000       0.0000     
     34     (1,2273)              5212.1      -5688.6       476.44       0.0000       0.0000       0.0000       0.0000       0.0000       0.0000       0.0000       0.0000     
     35     (1,2272)              5688.6      -5988.3       299.71       0.0000       0.0000       0.0000       0.0000       0.0000       0.0000       0.0000       0.0000     
     36     (1,2376)              5988.3      -6200.0       211.75       0.0000       0.0000       0.0000       0.0000       0.0000       0.0000       0.0000       0.0000     
     37     (1,2373)              6200.0      -6550.7       350.70       0.0000       0.0000       0.0000       0.0000       0.0000       0.0000       0.0000       0.0000     
     38     (1,2372)              6550.7      -6858.7       307.96       0.0000       0.0000       0.0000       0.0000       0.0000       0.0000       0.0000       0.0000     
     39     (1,2369)              6858.7      -7112.7       254.01       0.0000       0.0000       0.0000       0.0000       0.0000       0.0000       0.0000       0.0000     
     40     (1,2368)              7112.7      -7565.4       452.67       0.0000       0.0000       0.0000       0.0000       0.0000       0.0000       0.0000       0.0000     
     41     (1,2370)              7565.4      -7604.0       38.612       0.0000       0.0000       0.0000       0.0000       0.0000       0.0000       0.0000       0.0000     
     42     (1,2367)              7604.0      -8080.5       476.49       0.0000       0.0000       0.0000       0.0000       0.0000       0.0000       0.0000       0.0000     
     43     (1,2366)              8080.5      -8596.2       515.76       0.0000       0.0000       0.0000       0.0000       0.0000       0.0000       0.0000       0.0000     
     44     (1,2363)              8596.2      -9290.1       693.84       0.0000       0.0000       0.0000       0.0000       0.0000       0.0000       0.0000       0.0000     
     45     (1,2362)              9290.1      -10116.       826.33       0.0000       0.0000       0.0000       0.0000       0.0000       0.0000       0.0000       0.0000     
     46     (1,2462)              10116.      -10123.       6.5074       0.0000       0.0000       0.0000       0.0000       0.0000       0.0000       0.0000       0.0000     
     47     (1,2459)              10123.      -11059.       935.81       0.0000       0.0000       0.0000       0.0000       0.0000       0.0000       0.0000       0.0000     
     48     (1,2458)              11059.      -11418.       359.54       0.0000       0.0000       0.0000       0.0000       0.0000       0.0000       0.0000       0.0000     
     49     (1,2460)              11418.      -12097.       678.87       0.0000       0.0000       0.0000       0.0000       0.0000       0.0000       0.0000       0.0000     
     50     (1,2457)              12097.      -12741.       643.79       0.0000       0.0000       0.0000       0.0000       0.0000       0.0000       0.0000       0.0000     
     51     (1,2538)              12741.      -13185.       444.17       0.0000       0.0000       0.0000       0.0000       0.0000       0.0000       0.0000       0.0000     
     52     (1,2537)              13185.      -14044.       858.83       0.0000       0.0000       0.0000       0.0000       0.0000       0.0000       0.0000       0.0000     
     53     (1,2539)              14044.      -14256.       211.91       0.0000       0.0000       0.0000       0.0000       0.0000       0.0000       0.0000       0.0000     
     54     (1,2536)              14256.      -15018.       762.06       0.0000       0.0000       0.0000       0.0000       0.0000       0.0000       0.0000       0.0000     
     55     (1,2614)              15018.      -15561.       543.02       0.0000       0.0000       0.0000       0.0000       0.0000       0.0000       0.0000       0.0000     
     56     (1,2613)              15561.      -15957.       395.90       0.0000       0.0000       0.0000       0.0000       0.0000       0.0000       0.0000       0.0000     
     57     (1,2615)              15957.      -16653.       696.01       0.0000       0.0000       0.0000       0.0000       0.0000       0.0000       0.0000       0.0000     
     58     (1,2682)              16653.      -17346.       693.58       0.0000       0.0000       0.0000       0.0000       0.0000       0.0000       0.0000       0.0000     
     59     (1,2684)              17346.      -17875.       528.46       0.0000       0.0000       0.0000       0.0000       0.0000       0.0000       0.0000       0.0000     
     60     (1,2681)              17875.      -18278.       402.81       0.0000       0.0000       0.0000       0.0000       0.0000       0.0000       0.0000       0.0000     
     61     (1,2762)              18278.      -18945.       667.70       0.0000       0.0000       0.0000       0.0000       0.0000       0.0000       0.0000       0.0000     
     62     (1,2761)              18945.      -19247.       301.40       0.0000       0.0000       0.0000       0.0000       0.0000       0.0000       0.0000       0.0000     
     63     (1,2763)              19247.      -19738.       491.05       0.0000       0.0000       0.0000       0.0000       0.0000       0.0000       0.0000       0.0000     
     64     (1,2760)              19738.      -20366.       628.26       0.0000       0.0000       0.0000       0.0000       0.0000       0.0000       0.0000       0.0000     
     65     (1,2759)              20366.      -20935.       568.43       0.0000       0.0000       0.0000       0.0000       0.0000       0.0000       0.0000       0.0000     
     66     (1,2756)              20935.      -21507.       572.32       0.0000       0.0000       0.0000       0.0000       0.0000       0.0000       0.0000       0.0000     
     67     (1,2755)              21507.      -22142.       635.35       0.0000       0.0000       0.0000       0.0000       0.0000       0.0000       0.0000       0.0000     
     68     (1,2752)              22142.      -22775.       633.16       0.0000       0.0000       0.0000       0.0000       0.0000       0.0000       0.0000       0.0000     
     69     (1,2751)              22775.      -23485.       709.27       0.0000       0.0000       0.0000       0.0000       0.0000       0.0000       0.0000       0.0000     
     70     (1,2748)              23485.      -23528.       43.621       0.0000       0.0000       0.0000       0.0000       0.0000       0.0000       0.0000       0.0000     
     71     (1,2831)              23528.      -24150.       621.62       0.0000       0.0000       0.0000       0.0000       0.0000       0.0000       0.0000       0.0000     
     72     (1,2830)              24150.      -24742.       591.81       0.0000       0.0000       0.0000       0.0000       0.0000       0.0000       0.0000       0.0000     
     73     (1,2827)              24742.      -25021.       279.28       0.0000       0.0000       0.0000       0.0000       0.0000       0.0000       0.0000       0.0000     
     74     (1,2829)              25021.      -25418.       396.64       0.0000       0.0000       0.0000       0.0000       0.0000       0.0000       0.0000       0.0000     
     75     (1,2828)              25418.      -25932.       513.98       0.0000       0.0000       0.0000       0.0000       0.0000       0.0000       0.0000       0.0000     
     76     (1,2825)              25932.      -26453.       521.38       0.0000       0.0000       0.0000       0.0000       0.0000       0.0000       0.0000       0.0000     
     77     (1,2824)              26453.      -26685.       232.10       0.0000       0.0000       0.0000       0.0000       0.0000       0.0000       0.0000       0.0000     
     78     (1,2895)              26685.      -27066.       381.03       0.0000       0.0000       0.0000       0.0000       0.0000       0.0000       0.0000       0.0000     
     79     (1,2892)              27066.      -27529.       462.89       0.0000       0.0000       0.0000       0.0000       0.0000       0.0000       0.0000       0.0000     
     80     (1,2891)              27529.      -27977.       447.65       0.0000       0.0000       0.0000       0.0000       0.0000       0.0000       0.0000       0.0000     
     81     (1,2888)              27977.      -28387.       410.17       0.0000       0.0000       0.0000       0.0000       0.0000       0.0000       0.0000       0.0000     
     82     (1,2887)              28387.      -28939.       552.54       0.0000       0.0000       0.0000       0.0000       0.0000       0.0000       0.0000       0.0000     
     83     (1,2884)              28939.      -29100.       160.92       0.0000       0.0000       0.0000       0.0000       0.0000       0.0000       0.0000       0.0000     
     84     (1,2819)              29100.      -29627.       526.28       0.0000       0.0000       0.0000       0.0000       0.0000       0.0000       0.0000       0.0000     
     85     (1,2818)              29627.      -29787.       160.32       0.0000       0.0000       0.0000       0.0000       0.0000       0.0000       0.0000       0.0000     
     86     (1,2816)              29787.      -30333.       546.33       0.0000       0.0000       0.0000       0.0000       0.0000       0.0000       0.0000       0.0000     
     87     (1,2813)              30333.      -30516.       183.19       0.0000       0.0000       0.0000       0.0000       0.0000       0.0000       0.0000       0.0000     
     88     (1,2739)              30516.      -31118.       601.89       0.0000       0.0000       0.0000       0.0000       0.0000       0.0000       0.0000       0.0000     
     89     (1,2738)              31118.      -31343.       224.56       0.0000       0.0000       0.0000       0.0000       0.0000       0.0000       0.0000       0.0000     
     90     (1,2736)              31343.      -32110.       767.08       0.0000       0.0000       0.0000       0.0000       0.0000       0.0000       0.0000       0.0000     
     91     (1,2733)              32110.      -32362.       252.02       0.0000       0.0000       0.0000       0.0000       0.0000       0.0000       0.0000       0.0000     
     92     (1,2667)              32362.      -33206.       844.36       0.0000       0.0000       0.0000       0.0000       0.0000       0.0000       0.0000       0.0000     
     93     (1,2666)              33206.      -33434.       227.27       0.0000       0.0000       0.0000       0.0000       0.0000       0.0000       0.0000       0.0000     
     94     (1,2664)              33434.      -34277.       843.41       0.0000       0.0000       0.0000       0.0000       0.0000       0.0000       0.0000       0.0000     
     95     (1,2600)              34277.      -34704.       426.97       0.0000       0.0000       0.0000       0.0000       0.0000       0.0000       0.0000       0.0000     
     96     (1,2597)              34704.      -35455.       750.61       0.0000       0.0000       0.0000       0.0000       0.0000       0.0000       0.0000       0.0000     
     97     (1,2595)              35455.      -36321.       866.19       0.0000       0.0000       0.0000       0.0000       0.0000       0.0000       0.0000       0.0000     
     98     (1,2520)              36321.      -36638.       317.10       0.0000       0.0000       0.0000       0.0000       0.0000       0.0000       0.0000       0.0000     
     99     (1,2519)              36638.      -37453.       815.05       0.0000       0.0000       0.0000       0.0000       0.0000       0.0000       0.0000       0.0000     
    100     (1,2517)              37453.      -38285.       832.39       0.0000       0.0000       0.0000       0.0000       0.0000       0.0000       0.0000       0.0000     
    101     (1,2436)              38285.      -39163.       877.42       0.0000       0.0000       0.0000       0.0000       0.0000       0.0000       0.0000       0.0000     
    102     (1,2434)              39163.      -39797.       633.95       0.0000       0.0000       0.0000       0.0000       0.0000       0.0000       0.0000       0.0000     
    103     (1,2435)              39797.      -40678.       881.50       0.0000       0.0000       0.0000       0.0000       0.0000       0.0000       0.0000       0.0000     
    104     (1,2438)              40678.      -41029.       351.07       0.0000       0.0000       0.0000       0.0000       0.0000       0.0000       0.0000       0.0000     
    105     (1,2344)              41029.      -41800.       770.56       0.0000       0.0000       0.0000       0.0000       0.0000       0.0000       0.0000       0.0000     
    106     (1,2342)              41800.      -42354.       554.08       0.0000       0.0000       0.0000       0.0000       0.0000       0.0000       0.0000       0.0000     
    107     (1,2343)              42354.      -42842.       487.80       0.0000       0.0000       0.0000       0.0000       0.0000       0.0000       0.0000       0.0000     
    108     (1,2251)              42842.      -43677.       835.70       0.0000       0.0000       0.0000       0.0000       0.0000       0.0000       0.0000       0.0000     
    109     (1,2249)              43677.      -44447.       769.25       0.0000       0.0000       0.0000       0.0000       0.0000       0.0000       0.0000       0.0000     
    110     (1,2183)              44447.      -45317.       870.61       0.0000       0.0000       0.0000       0.0000       0.0000       0.0000       0.0000       0.0000     
    111     (1,2181)              45317.      -46158.       840.45       0.0000       0.0000       0.0000       0.0000       0.0000       0.0000       0.0000       0.0000     
    112     (1,2114)              46158.      -47008.       850.58       0.0000       0.0000       0.0000       0.0000       0.0000       0.0000       0.0000       0.0000     
    113     (1,2112)              47008.      -47867.       858.29       0.0000       0.0000       0.0000       0.0000       0.0000       0.0000       0.0000       0.0000     
    114     (1,2044)              47867.      -48373.       506.41       0.0000       0.0000       0.0000       0.0000       0.0000       0.0000       0.0000       0.0000     
    115     (1,2043)              48373.      -48898.       525.49       0.0000       0.0000       0.0000       0.0000       0.0000       0.0000       0.0000       0.0000     
    116     (1,2041)              48898.      -49757.       858.50       0.0000       0.0000       0.0000       0.0000       0.0000       0.0000       0.0000       0.0000     
    117     (1,1972)              49757.      -49902.       144.67       0.0000       0.0000       0.0000       0.0000       0.0000       0.0000       0.0000       0.0000     
    118     (1,1969)              49902.      -50730.       827.90       0.0000       0.0000       0.0000       0.0000       0.0000       0.0000       0.0000       0.0000     
    119     (1,1967)              50730.      -51129.       399.41       0.0000       0.0000       0.0000       0.0000       0.0000       0.0000       0.0000       0.0000     
    120     (1,1966)              51129.      -51672.       542.77       0.0000       0.0000       0.0000       0.0000       0.0000       0.0000       0.0000       0.0000     
    121     (1,1893)              51672.      -52368.       696.16       0.0000       0.0000       0.0000       0.0000       0.0000       0.0000       0.0000       0.0000     
    122     (1,1894)              52368.      -52536.       168.42       0.0000       0.0000       0.0000       0.0000       0.0000       0.0000       0.0000       0.0000     
    123     (1,1892)              52536.      -53097.       561.15       0.0000       0.0000       0.0000       0.0000       0.0000       0.0000       0.0000       0.0000     
    124     (1,1895)              53097.      -53718.       620.61       0.0000       0.0000       0.0000       0.0000       0.0000       0.0000       0.0000       0.0000     
    125     (1,1896)              53718.      -54475.       756.78       0.0000       0.0000       0.0000       0.0000       0.0000       0.0000       0.0000       0.0000     
    126     (1,1819)              54475.      -54665.       190.61       0.0000       0.0000       0.0000       0.0000       0.0000       0.0000       0.0000       0.0000     
    127     (1,1822)              54665.      -55747.       1081.9       0.0000       0.0000       0.0000       0.0000       0.0000       0.0000       0.0000       0.0000     
    128     (1,1820)              55747.      -56833.       1085.5       0.0000       0.0000       0.0000       0.0000       0.0000       0.0000       0.0000       0.0000     
    129     (1,1745)              56833.      -58343.       1510.5       0.0000       0.0000       0.0000       0.0000       0.0000       0.0000       0.0000       0.0000     
    130     (1,1742)              58343.      -59195.       851.60       0.0000       0.0000       0.0000       0.0000       0.0000       0.0000       0.0000       0.0000     
    131     (1,1741)              59195.      -59868.       673.44       0.0000       0.0000       0.0000       0.0000       0.0000       0.0000       0.0000       0.0000     
    132     (1,1738)              59868.      -60493.       624.37       0.0000       0.0000       0.0000       0.0000       0.0000       0.0000       0.0000       0.0000     
    133     (1,1737)              60493.      -60827.       333.79       0.0000       0.0000       0.0000       0.0000       0.0000       0.0000       0.0000       0.0000     
    134     (1,1735)              60827.      -61368.       541.10       0.0000       0.0000       0.0000       0.0000       0.0000       0.0000       0.0000       0.0000     
    135     (1,1732)              61368.      -61545.       177.80       0.0000       0.0000       0.0000       0.0000       0.0000       0.0000       0.0000       0.0000     
    136     (1,1653)              61545.      -62080.       534.86       0.0000       0.0000       0.0000       0.0000       0.0000       0.0000       0.0000       0.0000     
    137     (1,1651)              62080.      -62628.       548.07       0.0000       0.0000       0.0000       0.0000       0.0000       0.0000       0.0000       0.0000     
    138     (1,1654)              62628.      -63157.       528.21       0.0000       0.0000       0.0000       0.0000       0.0000       0.0000       0.0000       0.0000     
    139     (1,1655)              63157.      -63965.       808.53       0.0000       0.0000       0.0000       0.0000       0.0000       0.0000       0.0000       0.0000     
    140     (1,1658)              63965.      -64369.       403.60       0.0000       0.0000       0.0000       0.0000       0.0000       0.0000       0.0000       0.0000     
    141     (1,1548)              64369.      -65603.       1234.3       0.0000       0.0000       0.0000       0.0000       0.0000       0.0000       0.0000       0.0000     
    142     (1,1546)              65603.      -66673.       1070.0       0.0000       0.0000       0.0000       0.0000       0.0000       0.0000       0.0000       0.0000     
    143     (1,1543)              66673.      -67624.       951.28       0.0000       0.0000       0.0000       0.0000       0.0000       0.0000       0.0000       0.0000     
    144     (1,1453)              67624.      -68340.       715.25       0.0000       0.0000       0.0000       0.0000       0.0000       0.0000       0.0000       0.0000     
    145     (1,1452)              68340.      -69682.       1342.8       0.0000       0.0000       0.0000       0.0000       0.0000       0.0000       0.0000       0.0000     
    146     (1,1449)              69682.      -70909.       1226.8       0.0000       0.0000       0.0000       0.0000       0.0000       0.0000       0.0000       0.0000     
    147     (1,1448)              70909.      -71410.       500.79       0.0000       0.0000       0.0000       0.0000       0.0000       0.0000       0.0000       0.0000     
    148     (1,1538)              71410.      -72065.       654.61       0.0000       0.0000       0.0000       0.0000       0.0000       0.0000       0.0000       0.0000     
    149     (1,1535)              72065.      -73030.       965.59       0.0000       0.0000       0.0000       0.0000       0.0000       0.0000       0.0000       0.0000     
    150     (1,1537)              73030.      -73706.       676.01       0.0000       0.0000       0.0000       0.0000       0.0000       0.0000       0.0000       0.0000     
    151     (1,1647)              73706.      -74234.       528.07       0.0000       0.0000       0.0000       0.0000       0.0000       0.0000       0.0000       0.0000     
    152     (1,1649)              74234.      -74815.       580.39       0.0000       0.0000       0.0000       0.0000       0.0000       0.0000       0.0000       0.0000     
    153     (1,1648)              74815.      -75417.       602.44       0.0000       0.0000       0.0000       0.0000       0.0000       0.0000       0.0000       0.0000     
    154     (1,1645)              75417.      -76157.       739.96       0.0000       0.0000       0.0000       0.0000       0.0000       0.0000       0.0000       0.0000     
    155     (1,1644)              76157.      -76780.       623.19       0.0000       0.0000       0.0000       0.0000       0.0000       0.0000       0.0000       0.0000     
    156     (1,1642)              76780.      -77246.       465.59       0.0000       0.0000       0.0000       0.0000       0.0000       0.0000       0.0000       0.0000     
    157     (1,1639)              77246.      -78196.       950.67       0.0000       0.0000       0.0000       0.0000       0.0000       0.0000       0.0000       0.0000     
    158     (1,1638)              78196.      -78689.       492.12       0.0000       0.0000       0.0000       0.0000       0.0000       0.0000       0.0000       0.0000     
    159     (1,1640)              78689.      -79350.       661.25       0.0000       0.0000       0.0000       0.0000       0.0000       0.0000       0.0000       0.0000     
    160     (1,1637)              79350.      -80315.       965.52       0.0000       0.0000       0.0000       0.0000       0.0000       0.0000       0.0000       0.0000     
    161     (1,1636)              80315.      -81261.       946.04       0.0000       0.0000       0.0000       0.0000       0.0000       0.0000       0.0000       0.0000     
    162     (1,1633)              81261.      -82220.       958.35       0.0000       0.0000       0.0000       0.0000       0.0000       0.0000       0.0000       0.0000     
    163     (1,1632)              82220.      -83194.       973.84       0.0000       0.0000       0.0000       0.0000       0.0000       0.0000       0.0000       0.0000     
    164     (1,1629)              83194.      -84164.       969.88       0.0000       0.0000       0.0000       0.0000       0.0000       0.0000       0.0000       0.0000     
    165     (1,1628)              84164.      -85121.       957.01       0.0000       0.0000       0.0000       0.0000       0.0000       0.0000       0.0000       0.0000     
    166     (1,1625)              85121.      -86107.       986.16       0.0000       0.0000       0.0000       0.0000       0.0000       0.0000       0.0000       0.0000     
    167     (1,1624)              86107.      -87117.       1010.1       0.0000       0.0000       0.0000       0.0000       0.0000       0.0000       0.0000       0.0000     
    168     (1,1621)              87117.      -88167.       1050.4       0.0000       0.0000       0.0000       0.0000       0.0000       0.0000       0.0000       0.0000     
    169     (1,1620)              88167.      -89291.       1123.3       0.0000       0.0000       0.0000       0.0000       0.0000       0.0000       0.0000       0.0000     
    170     (1,1617)              89291.      -90102.       810.97       0.0000       0.0000       0.0000       0.0000       0.0000       0.0000       0.0000       0.0000     
    171     (1,1615)              90102.      -90711.       609.79       0.0000       0.0000       0.0000       0.0000       0.0000       0.0000       0.0000       0.0000     
    172     (1,1614)              90711.      -91837.       1125.8       0.0000       0.0000       0.0000       0.0000       0.0000       0.0000       0.0000       0.0000     
    173     (1,1611)              91837.      -92725.       888.18       0.0000       0.0000       0.0000       0.0000       0.0000       0.0000       0.0000       0.0000     
    174     (1,1525)              92725.      -93242.       516.97       0.0000       0.0000       0.0000       0.0000       0.0000       0.0000       0.0000       0.0000     
    175     (1,1524)              93242.      -94388.       1145.6       0.0000       0.0000       0.0000       0.0000       0.0000       0.0000       0.0000       0.0000     
    176     (1,1521)              94388.      -95329.       941.63       0.0000       0.0000       0.0000       0.0000       0.0000       0.0000       0.0000       0.0000     
    177     (1,1519)              95329.      -95870.       540.12       0.0000       0.0000       0.0000       0.0000       0.0000       0.0000       0.0000       0.0000     
    178     (1,1518)              95870.      -96963.       1094.0       0.0000       0.0000       0.0000       0.0000       0.0000       0.0000       0.0000       0.0000     
    179     (1,1515)              96963.      -98027.       1063.3       0.0000       0.0000       0.0000       0.0000       0.0000       0.0000       0.0000       0.0000     
    180     (1,1431)              98027.      -99158.       1131.7       0.0000       0.0000       0.0000       0.0000       0.0000       0.0000       0.0000       0.0000     
    181     (1,1429)              99158.      -1.00146E+05  987.60       0.0000       0.0000       0.0000       0.0000       0.0000       0.0000       0.0000       0.0000     
    182     (1,1432)              1.00146E+05 -1.00687E+05  540.86       0.0000       0.0000       0.0000       0.0000       0.0000       0.0000       0.0000       0.0000     
    183     (1,1353)              1.00687E+05 -1.01581E+05  894.03       0.0000       0.0000       0.0000       0.0000       0.0000       0.0000       0.0000       0.0000     
    184     (1,1351)              1.01581E+05 -1.02444E+05  863.22       0.0000       0.0000       0.0000       0.0000       0.0000       0.0000       0.0000       0.0000     
    185     (1,1274)              1.02444E+05 -1.03322E+05  877.51       0.0000       0.0000       0.0000       0.0000       0.0000       0.0000       0.0000       0.0000     
    186     (1,1272)              1.03322E+05 -1.04177E+05  854.95       0.0000       0.0000       0.0000       0.0000       0.0000       0.0000       0.0000       0.0000     
    187     (1,1194)              1.04177E+05 -1.05215E+05  1038.6       0.0000       0.0000       0.0000       0.0000       0.0000       0.0000       0.0000       0.0000     
    188     (1,1192)              1.05215E+05 -1.06291E+05  1075.6       0.0000       0.0000       0.0000       0.0000       0.0000       0.0000       0.0000       0.0000     
    189     (1,1189)              1.06291E+05 -1.06499E+05  208.40       0.0000       0.0000       0.0000       0.0000       0.0000       0.0000       0.0000       0.0000     
    190     (1,1111)              1.06499E+05 -1.07723E+05  1224.0       0.0000       0.0000       0.0000       0.0000       0.0000       0.0000       0.0000       0.0000     
    191     (1,1109)              1.07723E+05 -1.08544E+05  820.63       0.0000       0.0000       0.0000       0.0000       0.0000       0.0000       0.0000       0.0000     
    192     (1,1108)              1.08544E+05 -1.09119E+05  575.16       0.0000       0.0000       0.0000       0.0000       0.0000       0.0000       0.0000       0.0000     
    193     (1,1030)              1.09119E+05 -1.10225E+05  1106.0       0.0000       0.0000       0.0000       0.0000       0.0000       0.0000       0.0000       0.0000     
    194     (1,1028)              1.10225E+05 -1.11295E+05  1070.5       0.0000       0.0000       0.0000       0.0000       0.0000       0.0000       0.0000       0.0000     
    195     (1,950)               1.11295E+05 -1.11598E+05  302.34       0.0000       0.0000       0.0000       0.0000       0.0000       0.0000       0.0000       0.0000     
    196     (1,947)               1.11598E+05 -1.12645E+05  1047.3       0.0000       0.0000       0.0000       0.0000       0.0000       0.0000       0.0000       0.0000     
    197     (1,945)               1.12645E+05 -1.13403E+05  757.51       0.0000       0.0000       0.0000       0.0000       0.0000       0.0000       0.0000       0.0000     
    198     (1,944)               1.13403E+05 -1.14482E+05  1079.6       0.0000       0.0000       0.0000       0.0000       0.0000       0.0000       0.0000       0.0000     
    199     (1,866)               1.14482E+05 -1.15005E+05  522.58       0.0000       0.0000       0.0000       0.0000       0.0000       0.0000       0.0000       0.0000     
    200     (1,863)               1.15005E+05 -1.16076E+05  1070.9       0.0000       0.0000       0.0000       0.0000       0.0000       0.0000       0.0000       0.0000     
    201     (1,861)               1.16076E+05 -1.16898E+05  822.72       0.0000       0.0000       0.0000       0.0000       0.0000       0.0000       0.0000       0.0000     
    202     (1,860)               1.16898E+05 -1.17677E+05  778.31       0.0000       0.0000       0.0000       0.0000       0.0000       0.0000       0.0000       0.0000     
    203     (1,782)               1.17677E+05 -1.18748E+05  1071.4       0.0000       0.0000       0.0000       0.0000       0.0000       0.0000       0.0000       0.0000     
    204     (1,779)               1.18748E+05 -1.19181E+05  433.24       0.0000       0.0000       0.0000       0.0000       0.0000       0.0000       0.0000       0.0000     
    205     (1,777)               1.19181E+05 -1.20641E+05  1459.6       0.0000       0.0000       0.0000       0.0000       0.0000       0.0000       0.0000       0.0000     
    206     (1,700)               1.20641E+05 -1.20662E+05  21.102       0.0000       0.0000       0.0000       0.0000       0.0000       0.0000       0.0000       0.0000     
    207     (1,699)               1.20662E+05 -1.22116E+05  1453.4       0.0000       0.0000       0.0000       0.0000       0.0000       0.0000       0.0000       0.0000     
    208     (1,697)               1.22116E+05 -1.22384E+05  268.71       0.0000       0.0000       0.0000       0.0000       0.0000       0.0000       0.0000       0.0000     
    209     (1,694)               1.22384E+05 -1.23591E+05  1207.0       0.0000       0.0000       0.0000       0.0000       0.0000       0.0000       0.0000       0.0000     
    210     (1,618)               1.23591E+05 -1.24268E+05  676.90       0.0000       0.0000       0.0000       0.0000       0.0000       0.0000       0.0000       0.0000     
    211     (1,617)               1.24268E+05 -1.25083E+05  814.85       0.0000       0.0000       0.0000       0.0000       0.0000       0.0000       0.0000       0.0000     
    212     (1,615)               1.25083E+05 -1.26115E+05  1032.4       0.0000       0.0000       0.0000       0.0000       0.0000       0.0000       0.0000       0.0000     
    213     (1,612)               1.26115E+05 -1.26659E+05  543.84       0.0000       0.0000       0.0000       0.0000       0.0000       0.0000       0.0000       0.0000     
    214     (1,537)               1.26659E+05 -1.27699E+05  1040.1       0.0000       0.0000       0.0000       0.0000       0.0000       0.0000       0.0000       0.0000     
    215     (1,535)               1.27699E+05 -1.28464E+05  765.00       0.0000       0.0000       0.0000       0.0000       0.0000       0.0000       0.0000       0.0000     
    216     (1,534)               1.28464E+05 -1.29634E+05  1169.3       0.0000       0.0000       0.0000       0.0000       0.0000       0.0000       0.0000       0.0000     
    217     (1,531)               1.29634E+05 -1.29661E+05  27.845       0.0000       0.0000       0.0000       0.0000       0.0000       0.0000       0.0000       0.0000     
    218     (1,457)               1.29661E+05 -1.30835E+05  1174.0       0.0000       0.0000       0.0000       0.0000       0.0000       0.0000       0.0000       0.0000     
    219     (1,455)               1.30835E+05 -1.31865E+05  1029.8       0.0000       0.0000       0.0000       0.0000       0.0000       0.0000       0.0000       0.0000     
    220     (1,382)               1.31865E+05 -1.32392E+05  527.20       0.0000       0.0000       0.0000       0.0000       0.0000       0.0000       0.0000       0.0000     
    221     (1,381)               1.32392E+05 -1.33377E+05  984.78       0.0000       0.0000       0.0000       0.0000       0.0000       0.0000       0.0000       0.0000     
    222     (1,378)               1.33377E+05 -1.34311E+05  933.56       0.0000       0.0000       0.0000       0.0000       0.0000       0.0000       0.0000       0.0000     
    223     (1,377)               1.34311E+05 -1.35339E+05  1028.5       0.0000       0.0000       0.0000       0.0000       0.0000       0.0000       0.0000       0.0000     
    224     (1,375)               1.35339E+05 -1.35554E+05  214.61       0.0000       0.0000       0.0000       0.0000       0.0000       0.0000       0.0000       0.0000     
    225     (1,372)               1.35554E+05 -1.36683E+05  1129.2       0.0000       0.0000       0.0000       0.0000       0.0000       0.0000       0.0000       0.0000     
    226     (1,371)               1.36683E+05 -1.37150E+05  467.02       0.0000       0.0000       0.0000       0.0000       0.0000       0.0000       0.0000       0.0000     
    227     (1,299)               1.37150E+05 -1.37951E+05  801.35       0.0000       0.0000       0.0000       0.0000       0.0000       0.0000       0.0000       0.0000     
    228     (1,296)               1.37951E+05 -1.38972E+05  1020.4       0.0000       0.0000       0.0000       0.0000       0.0000       0.0000       0.0000       0.0000     
    229     (1,294)               1.38972E+05 -1.39128E+05  156.36       0.0000       0.0000       0.0000       0.0000       0.0000       0.0000       0.0000       0.0000     
    230     (1,293)               1.39128E+05 -1.40061E+05  933.27       0.0000       0.0000       0.0000       0.0000       0.0000       0.0000       0.0000       0.0000     
    231     (1,290)               1.40061E+05 -1.40966E+05  904.60       0.0000       0.0000       0.0000       0.0000       0.0000       0.0000       0.0000       0.0000     
    232     (1,289)               1.40966E+05 -1.42009E+05  1043.1       0.0000       0.0000       0.0000       0.0000       0.0000       0.0000       0.0000       0.0000     
    233     (1,286)               1.42009E+05 -1.42193E+05  184.37       0.0000       0.0000       0.0000       0.0000       0.0000       0.0000       0.0000       0.0000     
    234     (1,250)               1.42193E+05 -1.43026E+05  832.45       0.0000       0.0000       0.0000       0.0000       0.0000       0.0000       0.0000       0.0000     
    235     (1,249)               1.43026E+05 -1.44037E+05  1011.1       0.0000       0.0000       0.0000       0.0000       0.0000       0.0000       0.0000       0.0000     
    236     (1,246)               1.44037E+05 -1.44636E+05  599.46       0.0000       0.0000       0.0000       0.0000       0.0000       0.0000       0.0000       0.0000     
    237     (1,244)               1.44636E+05 -1.45382E+05  745.98       0.0000       0.0000       0.0000       0.0000       0.0000       0.0000       0.0000       0.0000     
    238     (1,243)               1.45382E+05 -1.46492E+05  1109.2       0.0000       0.0000       0.0000       0.0000       0.0000       0.0000       0.0000       0.0000     
    239     (1,209)               1.46492E+05 -1.47024E+05  532.14       0.0000       0.0000       0.0000       0.0000       0.0000       0.0000       0.0000       0.0000     
    240     (1,206)               1.47024E+05 -1.48080E+05  1056.3       0.0000       0.0000       0.0000       0.0000       0.0000       0.0000       0.0000       0.0000     
    241     (1,204)               1.48080E+05 -1.48584E+05  503.61       0.0000       0.0000       0.0000       0.0000       0.0000       0.0000       0.0000       0.0000     
    242     (1,203)               1.48584E+05 -1.49590E+05  1006.4       0.0000       0.0000       0.0000       0.0000       0.0000       0.0000       0.0000       0.0000     
    243     (1,171)               1.49590E+05 -1.50077E+05  487.07       0.0000       0.0000       0.0000       0.0000       0.0000       0.0000       0.0000       0.0000     
    244     (1,168)               1.50077E+05 -1.51227E+05  1150.1       0.0000       0.0000       0.0000       0.0000       0.0000       0.0000       0.0000       0.0000     
    245     (1,166)               1.51227E+05 -1.51305E+05  77.966       0.0000       0.0000       0.0000       0.0000       0.0000       0.0000       0.0000       0.0000     
    246     (1,165)               1.51305E+05 -1.52558E+05  1252.9       0.0000       0.0000       0.0000       0.0000       0.0000       0.0000       0.0000       0.0000     
    247     (1,135)               1.52558E+05 -1.52635E+05  76.598       0.0000       0.0000       0.0000       0.0000       0.0000       0.0000       0.0000       0.0000     
    248     (1,132)               1.52635E+05 -1.53842E+05  1206.8       0.0000       0.0000       0.0000       0.0000       0.0000       0.0000       0.0000       0.0000     
    249     (1,130)               1.53842E+05 -1.53916E+05  74.565       0.0000       0.0000       0.0000       0.0000       0.0000       0.0000       0.0000       0.0000     
    250     (1,129)               1.53916E+05 -1.55093E+05  1176.6       0.0000       0.0000       0.0000       0.0000       0.0000       0.0000       0.0000       0.0000     
    251     (1,101)               1.55093E+05 -1.55165E+05  72.184       0.0000       0.0000       0.0000       0.0000       0.0000       0.0000       0.0000       0.0000     
    252     (1,98)                1.55165E+05 -1.56312E+05  1146.7       0.0000       0.0000       0.0000       0.0000       0.0000       0.0000       0.0000       0.0000     
    253     (1,96)                1.56312E+05 -1.56381E+05  69.725       0.0000       0.0000       0.0000       0.0000       0.0000       0.0000       0.0000       0.0000     
    254     (1,95)                1.56381E+05 -1.57494E+05  1112.2       0.0000       0.0000       0.0000       0.0000       0.0000       0.0000       0.0000       0.0000     
    255     (1,69)                1.57494E+05 -1.57561E+05  66.944       0.0000       0.0000       0.0000       0.0000       0.0000       0.0000       0.0000       0.0000     
    256     (1,66)                1.57561E+05 -1.58650E+05  1089.3       0.0000       0.0000       0.0000       0.0000       0.0000       0.0000       0.0000       0.0000     
    257     (1,65)                1.58650E+05 -1.58722E+05  72.390       0.0000       0.0000       0.0000       0.0000       0.0000       0.0000       0.0000       0.0000     
    258     (1,63)                1.58722E+05 -1.59644E+05  921.79       0.0000       0.0000       0.0000       0.0000       0.0000       0.0000       0.0000       0.0000     
    259     (1,60)                1.59644E+05 -1.60029E+05  385.22       0.0000       0.0000       0.0000       0.0000       0.0000       0.0000       0.0000       0.0000     
    260     (1,36)                1.60029E+05 -1.60891E+05  861.98       0.0000       0.0000       0.0000       0.0000       0.0000       0.0000       0.0000       0.0000     
    261     (1,35)                1.60891E+05 -1.61369E+05  478.13       0.0000       0.0000       0.0000       0.0000       0.0000       0.0000       0.0000       0.0000     
    262     (1,33)                1.61369E+05 -1.62036E+05  667.03       0.0000       0.0000       0.0000       0.0000       0.0000       0.0000       0.0000       0.0000     
    263     (1,30)                1.62036E+05 -1.62829E+05  792.31       0.0000       0.0000       0.0000       0.0000       0.0000       0.0000       0.0000       0.0000     
    264     (1,8)                 1.62829E+05 -1.63456E+05  626.94       0.0000       0.0000       0.0000       0.0000       0.0000       0.0000       0.0000       0.0000     
    265     (1,7)                 1.63456E+05 -1.64350E+05  894.55       0.0000       0.0000       0.0000       0.0000       0.0000       0.0000       0.0000       0.0000     
    266     (1,5)                 1.64350E+05  0.0000       108.42       0.0000       0.0000       0.0000       0.0000      -1.64459E+05  0.0000       0.0000       0.0000     
 ------------------------------------------------------------------------------------------------------------------------------------------------------------------------------




  SFR BUDGET FOR ENTIRE MODEL AT END OF TIME STEP    1, STRESS PERIOD   1
  ------------------------------------------------------------------------------

     CUMULATIVE SFR      L**3       RATES FOR THIS TIME STEP      L**3/T
     ------------------                 ------------------------

           IN:                                      IN:
           ---                                      ---
                 GWF =      164458.6368                   GWF =      164458.6368
            RAINFALL =           0.0000              RAINFALL =           0.0000
         EVAPORATION =           0.0000           EVAPORATION =           0.0000
              RUNOFF =           0.0000                RUNOFF =           0.0000
          EXT-INFLOW =           0.0000            EXT-INFLOW =           0.0000
         EXT-OUTFLOW =           0.0000           EXT-OUTFLOW =           0.0000
             STORAGE =           0.0000               STORAGE =           0.0000

            TOTAL IN =      164458.6368              TOTAL IN =      164458.6368

          OUT:                                     OUT:
          ----                                     ----
                 GWF =           0.0000                   GWF =           0.0000
            RAINFALL =           0.0000              RAINFALL =           0.0000
         EVAPORATION =           0.0000           EVAPORATION =           0.0000
              RUNOFF =           0.0000                RUNOFF =           0.0000
          EXT-INFLOW =           0.0000            EXT-INFLOW =           0.0000
         EXT-OUTFLOW =      164458.6368           EXT-OUTFLOW =      164458.6368
             STORAGE =           0.0000               STORAGE =           0.0000

           TOTAL OUT =      164458.6368             TOTAL OUT =      164458.6368

            IN - OUT =           0.0000              IN - OUT =           0.0000

 PERCENT DISCREPANCY =           0.00     PERCENT DISCREPANCY =           0.00



  VOLUME BUDGET FOR ENTIRE MODEL AT END OF TIME STEP    1, STRESS PERIOD   1
  ---------------------------------------------------------------------------------------------------

     CUMULATIVE VOLUME      L**3       RATES FOR THIS TIME STEP      L**3/T          PACKAGE NAME    
     ------------------                 ------------------------                     ----------------

           IN:                                      IN:
           ---                                      ---
              STO-SS =           0.0000                STO-SS =           0.0000     STORAGE         
              STO-SY =           0.0000                STO-SY =           0.0000     STORAGE         
                 GHB =           0.0000                   GHB =           0.0000     GHB             
                 RCH =      216249.7437                   RCH =      216249.7437     RCH             
                 SFR =           0.0000                   SFR =           0.0000     SFR             

            TOTAL IN =      216249.7437              TOTAL IN =      216249.7437

          OUT:                                     OUT:
          ----                                     ----
              STO-SS =           0.0000                STO-SS =           0.0000     STORAGE         
              STO-SY =           0.0000                STO-SY =           0.0000     STORAGE         
                 GHB =       51791.1670                   GHB =       51791.1670     GHB             
                 RCH =           0.0000                   RCH =           0.0000     RCH             
                 SFR =      164458.6288                   SFR =      164458.6288     SFR             

           TOTAL OUT =      216249.7958             TOTAL OUT =      216249.7958

            IN - OUT =       5.2139E-02              IN - OUT =       5.2139E-02

 PERCENT DISCREPANCY =          -0.00     PERCENT DISCREPANCY =          -0.00




         TIME SUMMARY AT END OF TIME STEP    1 IN STRESS PERIOD    1
                    SECONDS     MINUTES      HOURS       DAYS        YEARS
                    -----------------------------------------------------------
   TIME STEP LENGTH  86400.      1440.0      24.000      1.0000     2.73785E-03
 STRESS PERIOD TIME  86400.      1440.0      24.000      1.0000     2.73785E-03
         TOTAL TIME  86400.      1440.0      24.000      1.0000     2.73785E-03


end timestep


start timestep kper="2" kstp="1" mode="normal"


 END OF FILE DETECTED IN OUTPUT CONTROL.
 CURRENT OUTPUT CONTROL SETTINGS WILL BE 
 REPEATED UNTIL THE END OF THE SIMULATION.

 OUTPUT CONTROL FOR STRESS PERIOD 2 IS REPEATED USING SETTINGS FROM A PREVIOUS STRESS PERIOD.


 PROCESSING STORAGE PERIOD DATA
 END PROCESSING STORAGE PERIOD DATA


 STRESS PERIOD 2 IS TRANSIENT


 REUSING GHBS FROM LAST STRESS PERIOD
 -------------------------------------------
  RCH NO.    LAYER  CELL2D      RECHARGE    
 -------------------------------------------
     1         1       7     1.00000000     
     2         1       8     1.00000000     
     3         1      24     1.00000000     
     4         1      25     1.00000000     
     5         1      26     1.00000000     
     6         1      27     1.00000000     
     7         1      28     1.00000000     
     8         1      29     1.00000000     
     9         1      30     1.00000000     
     10        1      31     1.00000000     
     11        1      32     1.00000000     
     12        1      33     1.00000000     
     13        1      34     1.00000000     
     14        1      35     1.00000000     
     15        1      36     1.00000000     
     16        1      37     1.00000000     
     17        1      38     1.00000000     
     18        1      39     1.00000000     
     19        1      40     1.00000000     
     20        1      41     1.00000000     
     21        1      42     1.00000000     
     22        1      43     1.00000000     
     23        1      44     1.00000000     
     24        1      45     1.00000000     
     25        1      46     1.00000000     
     26        1      47     1.00000000     
     27        1      48     1.00000000     
     28        1      49     1.00000000     
     29        1      50     1.00000000     
     30        1      53     1.00000000     
     31        1      54     1.00000000     
     32        1      55     1.00000000     
     33        1      56     1.00000000     
     34        1      57     1.00000000     
     35        1      58     1.00000000     
     36        1      59     1.00000000     
     37        1      60     1.00000000     
     38        1      61     1.00000000     
     39        1      62     1.00000000     
     40        1      63     1.00000000     
     41        1      64     1.00000000     
     42        1      65     1.00000000     
     43        1      66     1.00000000     
     44        1      67     1.00000000     
     45        1      68     1.00000000     
     46        1      69     1.00000000     
     47        1      70     1.00000000     
     48        1      71     1.00000000     
     49        1      72     1.00000000     
     50        1      73     1.00000000     
     51        1      74     1.00000000     
     52        1      75     1.00000000     
     53        1      76     1.00000000     
     54        1      77     1.00000000     
     55        1      78     1.00000000     
     56        1      79     1.00000000     
     57        1      80     1.00000000     
     58        1      81     1.00000000     
     59        1      82     1.00000000     
     60        1      83     1.00000000     
     61        1      86     1.00000000     
     62        1      87     1.00000000     
     63        1      88     1.00000000     
     64        1      89     1.00000000     
     65        1      90     1.00000000     
     66        1      91     1.00000000     
     67        1      92     1.00000000     
     68        1      93     1.00000000     
     69        1      94     1.00000000     
     70        1      95     1.00000000     
     71        1      96     1.00000000     
     72        1      97     1.00000000     
     73        1      98     1.00000000     
     74        1      99     1.00000000     
     75        1      100    1.00000000     
     76        1      101    1.00000000     
     77        1      102    1.00000000     
     78        1      103    1.00000000     
     79        1      104    1.00000000     
     80        1      105    1.00000000     
     81        1      106    1.00000000     
     82        1      107    1.00000000     
     83        1      108    1.00000000     
     84        1      109    1.00000000     
     85        1      110    1.00000000     
     86        1      111    1.00000000     
     87        1      112    1.00000000     
     88        1      113    1.00000000     
     89        1      114    1.00000000     
     90        1      115    1.00000000     
     91        1      118    1.00000000     
     92        1      119    1.00000000     
     93        1      120    1.00000000     
     94        1      121    1.00000000     
     95        1      122    1.00000000     
     96        1      123    1.00000000     
     97        1      124    1.00000000     
     98        1      125    1.00000000     
     99        1      126    1.00000000     
    100        1      127    1.00000000     
    101        1      128    1.00000000     
    102        1      129    1.00000000     
    103        1      130    1.00000000     
    104        1      131    1.00000000     
    105        1      132    1.00000000     
    106        1      133    1.00000000     
    107        1      134    1.00000000     
    108        1      135    1.00000000     
    109        1      136    1.00000000     
    110        1      137    1.00000000     
    111        1      138    1.00000000     
    112        1      139    1.00000000     
    113        1      140    1.00000000     
    114        1      141    1.00000000     
    115        1      142    1.00000000     
    116        1      143    1.00000000     
    117        1      144    1.00000000     
    118        1      145    1.00000000     
    119        1      146    1.00000000     
    120        1      147    1.00000000     
    121        1      148    1.00000000     
    122        1      149    1.00000000     
    123        1      152    1.00000000     
    124        1      153    1.00000000     
    125        1      154    1.00000000     
    126        1      155    1.00000000     
    127        1      156    1.00000000     
    128        1      157    1.00000000     
    129        1      158    1.00000000     
    130        1      159    1.00000000     
    131        1      160    1.00000000     
    132        1      161    1.00000000     
    133        1      162    1.00000000     
    134        1      163    1.00000000     
    135        1      164    1.00000000     
    136        1      165    1.00000000     
    137        1      166    1.00000000     
    138        1      167    1.00000000     
    139        1      168    1.00000000     
    140        1      169    1.00000000     
    141        1      170    1.00000000     
    142        1      171    1.00000000     
    143        1      172    1.00000000     
    144        1      173    1.00000000     
    145        1      174    1.00000000     
    146        1      175    1.00000000     
    147        1      176    1.00000000     
    148        1      177    1.00000000     
    149        1      178    1.00000000     
    150        1      179    1.00000000     
    151        1      180    1.00000000     
    152        1      181    1.00000000     
    153        1      182    1.00000000     
    154        1      183    1.00000000     
    155        1      184    1.00000000     
    156        1      185    1.00000000     
    157        1      188    1.00000000     
    158        1      189    1.00000000     
    159        1      190    1.00000000     
    160        1      191    1.00000000     
    161        1      192    1.00000000     
    162        1      193    1.00000000     
    163        1      194    1.00000000     
    164        1      195    1.00000000     
    165        1      196    1.00000000     
    166        1      197    1.00000000     
    167        1      198    1.00000000     
    168        1      199    1.00000000     
    169        1      200    1.00000000     
    170        1      201    1.00000000     
    171        1      202    1.00000000     
    172        1      203    1.00000000     
    173        1      204    1.00000000     
    174        1      205    1.00000000     
    175        1      206    1.00000000     
    176        1      207    1.00000000     
    177        1      208    1.00000000     
    178        1      209    1.00000000     
    179        1      210    1.00000000     
    180        1      211    1.00000000     
    181        1      212    1.00000000     
    182        1      213    1.00000000     
    183        1      214    1.00000000     
    184        1      215    1.00000000     
    185        1      216    1.00000000     
    186        1      217    1.00000000     
    187        1      218    1.00000000     
    188        1      219    1.00000000     
    189        1      220    1.00000000     
    190        1      221    1.00000000     
    191        1      222    1.00000000     
    192        1      223    1.00000000     
    193        1      225    1.00000000     
    194        1      226    1.00000000     
    195        1      227    1.00000000     
    196        1      228    1.00000000     
    197        1      229    1.00000000     
    198        1      230    1.00000000     
    199        1      231    1.00000000     
    200        1      232    1.00000000     
    201        1      233    1.00000000     
    202        1      234    1.00000000     
    203        1      235    1.00000000     
    204        1      236    1.00000000     
    205        1      237    1.00000000     
    206        1      238    1.00000000     
    207        1      239    1.00000000     
    208        1      240    1.00000000     
    209        1      241    1.00000000     
    210        1      242    1.00000000     
    211        1      243    1.00000000     
    212        1      244    1.00000000     
    213        1      245    1.00000000     
    214        1      246    1.00000000     
    215        1      247    1.00000000     
    216        1      248    1.00000000     
    217        1      249    1.00000000     
    218        1      250    1.00000000     
    219        1      251    1.00000000     
    220        1      252    1.00000000     
    221        1      253    1.00000000     
    222        1      254    1.00000000     
    223        1      255    1.00000000     
    224        1      256    1.00000000     
    225        1      257    1.00000000     
    226        1      258    1.00000000     
    227        1      259    1.00000000     
    228        1      260    1.00000000     
    229        1      261    1.00000000     
    230        1      262    1.00000000     
    231        1      263    1.00000000     
    232        1      266    1.00000000     
    233        1      267    1.00000000     
    234        1      268    1.00000000     
    235        1      269    1.00000000     
    236        1      270    1.00000000     
    237        1      271    1.00000000     
    238        1      272    1.00000000     
    239        1      273    1.00000000     
    240        1      274    1.00000000     
    241        1      275    1.00000000     
    242        1      276    1.00000000     
    243        1      277    1.00000000     
    244        1      278    1.00000000     
    245        1      279    1.00000000     
    246        1      280    1.00000000     
    247        1      281    1.00000000     
    248        1      282    1.00000000     
    249        1      283    1.00000000     
    250        1      284    1.00000000     
    251        1      285    1.00000000     
    252        1      286    1.00000000     
    253        1      287    1.00000000     
    254        1      288    1.00000000     
    255        1      289    1.00000000     
    256        1      290    1.00000000     
    257        1      291    1.00000000     
    258        1      292    1.00000000     
    259        1      293    1.00000000     
    260        1      294    1.00000000     
    261        1      295    1.00000000     
    262        1      296    1.00000000     
    263        1      297    1.00000000     
    264        1      298    1.00000000     
    265        1      299    1.00000000     
    266        1      300    1.00000000     
    267        1      301    1.00000000     
    268        1      302    1.00000000     
    269        1      303    1.00000000     
    270        1      304    1.00000000     
    271        1      305    1.00000000     
    272        1      306    1.00000000     
    273        1      307    1.00000000     
    274        1      308    1.00000000     
    275        1      309    1.00000000     
    276        1      310    1.00000000     
    277        1      311    1.00000000     
    278        1      349    1.00000000     
    279        1      350    1.00000000     
    280        1      351    1.00000000     
    281        1      352    1.00000000     
    282        1      353    1.00000000     
    283        1      354    1.00000000     
    284        1      355    1.00000000     
    285        1      356    1.00000000     
    286        1      357    1.00000000     
    287        1      358    1.00000000     
    288        1      359    1.00000000     
    289        1      360    1.00000000     
    290        1      361    1.00000000     
    291        1      362    1.00000000     
    292        1      363    1.00000000     
    293        1      364    1.00000000     
    294        1      365    1.00000000     
    295        1      366    1.00000000     
    296        1      367    1.00000000     
    297        1      368    1.00000000     
    298        1      369    1.00000000     
    299        1      370    1.00000000     
    300        1      371    1.00000000     
    301        1      372    1.00000000     
    302        1      373    1.00000000     
    303        1      374    1.00000000     
    304        1      375    1.00000000     
    305        1      376    1.00000000     
    306        1      377    1.00000000     
    307        1      378    1.00000000     
    308        1      379    1.00000000     
    309        1      380    1.00000000     
    310        1      381    1.00000000     
    311        1      382    1.00000000     
    312        1      383    1.00000000     
    313        1      384    1.00000000     
    314        1      385    1.00000000     
    315        1      386    1.00000000     
    316        1      387    1.00000000     
    317        1      388    1.00000000     
    318        1      389    1.00000000     
    319        1      390    1.00000000     
    320        1      391    1.00000000     
    321        1      392    1.00000000     
    322        1      393    1.00000000     
    323        1      394    1.00000000     
    324        1      395    1.00000000     
    325        1      396    1.00000000     
    326        1      397    1.00000000     
    327        1      398    1.00000000     
    328        1      399    1.00000000     
    329        1      400    1.00000000     
    330        1      401    1.00000000     
    331        1      402    1.00000000     
    332        1      403    1.00000000     
    333        1      404    1.00000000     
    334        1      405    1.00000000     
    335        1      406    1.00000000     
    336        1      407    1.00000000     
    337        1      408    1.00000000     
    338        1      409    1.00000000     
    339        1      410    1.00000000     
    340        1      411    1.00000000     
    341        1      412    1.00000000     
    342        1      413    1.00000000     
    343        1      414    1.00000000     
    344        1      415    1.00000000     
    345        1      416    1.00000000     
    346        1      417    1.00000000     
    347        1      418    1.00000000     
    348        1      419    1.00000000     
    349        1      420    1.00000000     
    350        1      421    1.00000000     
    351        1      422    1.00000000     
    352        1      423    1.00000000     
    353        1      424    1.00000000     
    354        1      425    1.00000000     
    355        1      426    1.00000000     
    356        1      427    1.00000000     
    357        1      430    1.00000000     
    358        1      431    1.00000000     
    359        1      432    1.00000000     
    360        1      433    1.00000000     
    361        1      434    1.00000000     
    362        1      435    1.00000000     
    363        1      436    1.00000000     
    364        1      437    1.00000000     
    365        1      438    1.00000000     
    366        1      439    1.00000000     
    367        1      440    1.00000000     
    368        1      441    1.00000000     
    369        1      442    1.00000000     
    370        1      443    1.00000000     
    371        1      444    1.00000000     
    372        1      445    1.00000000     
    373        1      446    1.00000000     
    374        1      447    1.00000000     
    375        1      448    1.00000000     
    376        1      449    1.00000000     
    377        1      450    1.00000000     
    378        1      451    1.00000000     
    379        1      452    1.00000000     
    380        1      453    1.00000000     
    381        1      454    1.00000000     
    382        1      455    1.00000000     
    383        1      456    1.00000000     
    384        1      457    1.00000000     
    385        1      458    1.00000000     
    386        1      459    1.00000000     
    387        1      460    1.00000000     
    388        1      461    1.00000000     
    389        1      462    1.00000000     
    390        1      463    1.00000000     
    391        1      464    1.00000000     
    392        1      465    1.00000000     
    393        1      466    1.00000000     
    394        1      467    1.00000000     
    395        1      468    1.00000000     
    396        1      469    1.00000000     
    397        1      470    1.00000000     
    398        1      471    1.00000000     
    399        1      472    1.00000000     
    400        1      473    1.00000000     
    401        1      474    1.00000000     
    402        1      475    1.00000000     
    403        1      476    1.00000000     
    404        1      477    1.00000000     
    405        1      478    1.00000000     
    406        1      479    1.00000000     
    407        1      480    1.00000000     
    408        1      481    1.00000000     
    409        1      482    1.00000000     
    410        1      483    1.00000000     
    411        1      484    1.00000000     
    412        1      485    1.00000000     
    413        1      486    1.00000000     
    414        1      487    1.00000000     
    415        1      488    1.00000000     
    416        1      489    1.00000000     
    417        1      490    1.00000000     
    418        1      491    1.00000000     
    419        1      492    1.00000000     
    420        1      493    1.00000000     
    421        1      494    1.00000000     
    422        1      495    1.00000000     
    423        1      496    1.00000000     
    424        1      497    1.00000000     
    425        1      498    1.00000000     
    426        1      499    1.00000000     
    427        1      500    1.00000000     
    428        1      501    1.00000000     
    429        1      502    1.00000000     
    430        1      503    1.00000000     
    431        1      506    1.00000000     
    432        1      507    1.00000000     
    433        1      508    1.00000000     
    434        1      509    1.00000000     
    435        1      510    1.00000000     
    436        1      511    1.00000000     
    437        1      512    1.00000000     
    438        1      513    1.00000000     
    439        1      514    1.00000000     
    440        1      515    1.00000000     
    441        1      516    1.00000000     
    442        1      517    1.00000000     
    443        1      518    1.00000000     
    444        1      519    1.00000000     
    445        1      520    1.00000000     
    446        1      521    1.00000000     
    447        1      522    1.00000000     
    448        1      523    1.00000000     
    449        1      524    1.00000000     
    450        1      525    1.00000000     
    451        1      526    1.00000000     
    452        1      527    1.00000000     
    453        1      528    1.00000000     
    454        1      529    1.00000000     
    455        1      530    1.00000000     
    456        1      531    1.00000000     
    457        1      532    1.00000000     
    458        1      533    1.00000000     
    459        1      534    1.00000000     
    460        1      535    1.00000000     
    461        1      536    1.00000000     
    462        1      537    1.00000000     
    463        1      538    1.00000000     
    464        1      539    1.00000000     
    465        1      540    1.00000000     
    466        1      541    1.00000000     
    467        1      542    1.00000000     
    468        1      543    1.00000000     
    469        1      544    1.00000000     
    470        1      545    1.00000000     
    471        1      546    1.00000000     
    472        1      547    1.00000000     
    473        1      548    1.00000000     
    474        1      549    1.00000000     
    475        1      550    1.00000000     
    476        1      551    1.00000000     
    477        1      552    1.00000000     
    478        1      553    1.00000000     
    479        1      554    1.00000000     
    480        1      555    1.00000000     
    481        1      556    1.00000000     
    482        1      557    1.00000000     
    483        1      558    1.00000000     
    484        1      559    1.00000000     
    485        1      560    1.00000000     
    486        1      561    1.00000000     
    487        1      562    1.00000000     
    488        1      563    1.00000000     
    489        1      564    1.00000000     
    490        1      565    1.00000000     
    491        1      566    1.00000000     
    492        1      567    1.00000000     
    493        1      568    1.00000000     
    494        1      569    1.00000000     
    495        1      570    1.00000000     
    496        1      571    1.00000000     
    497        1      572    1.00000000     
    498        1      573    1.00000000     
    499        1      574    1.00000000     
    500        1      575    1.00000000     
    501        1      576    1.00000000     
    502        1      577    1.00000000     
    503        1      578    1.00000000     
    504        1      579    1.00000000     
    505        1      580    1.00000000     
    506        1      581    1.00000000     
    507        1      582    1.00000000     
    508        1      583    1.00000000     
    509        1      586    1.00000000     
    510        1      587    1.00000000     
    511        1      588    1.00000000     
    512        1      589    1.00000000     
    513        1      590    1.00000000     
    514        1      591    1.00000000     
    515        1      592    1.00000000     
    516        1      593    1.00000000     
    517        1      594    1.00000000     
    518        1      595    1.00000000     
    519        1      596    1.00000000     
    520        1      597    1.00000000     
    521        1      598    1.00000000     
    522        1      599    1.00000000     
    523        1      600    1.00000000     
    524        1      601    1.00000000     
    525        1      602    1.00000000     
    526        1      603    1.00000000     
    527        1      604    1.00000000     
    528        1      605    1.00000000     
    529        1      606    1.00000000     
    530        1      607    1.00000000     
    531        1      608    1.00000000     
    532        1      609    1.00000000     
    533        1      610    1.00000000     
    534        1      611    1.00000000     
    535        1      612    1.00000000     
    536        1      613    1.00000000     
    537        1      614    1.00000000     
    538        1      615    1.00000000     
    539        1      616    1.00000000     
    540        1      617    1.00000000     
    541        1      618    1.00000000     
    542        1      619    1.00000000     
    543        1      620    1.00000000     
    544        1      621    1.00000000     
    545        1      622    1.00000000     
    546        1      623    1.00000000     
    547        1      624    1.00000000     
    548        1      625    1.00000000     
    549        1      626    1.00000000     
    550        1      627    1.00000000     
    551        1      628    1.00000000     
    552        1      629    1.00000000     
    553        1      630    1.00000000     
    554        1      631    1.00000000     
    555        1      632    1.00000000     
    556        1      633    1.00000000     
    557        1      634    1.00000000     
    558        1      635    1.00000000     
    559        1      636    1.00000000     
    560        1      637    1.00000000     
    561        1      638    1.00000000     
    562        1      639    1.00000000     
    563        1      640    1.00000000     
    564        1      641    1.00000000     
    565        1      642    1.00000000     
    566        1      643    1.00000000     
    567        1      644    1.00000000     
    568        1      645    1.00000000     
    569        1      646    1.00000000     
    570        1      647    1.00000000     
    571        1      648    1.00000000     
    572        1      649    1.00000000     
    573        1      650    1.00000000     
    574        1      651    1.00000000     
    575        1      652    1.00000000     
    576        1      653    1.00000000     
    577        1      654    1.00000000     
    578        1      655    1.00000000     
    579        1      656    1.00000000     
    580        1      657    1.00000000     
    581        1      658    1.00000000     
    582        1      659    1.00000000     
    583        1      660    1.00000000     
    584        1      661    1.00000000     
    585        1      662    1.00000000     
    586        1      663    1.00000000     
    587        1      664    1.00000000     
    588        1      667    1.00000000     
    589        1      668    1.00000000     
    590        1      669    1.00000000     
    591        1      670    1.00000000     
    592        1      671    1.00000000     
    593        1      672    1.00000000     
    594        1      673    1.00000000     
    595        1      674    1.00000000     
    596        1      675    1.00000000     
    597        1      676    1.00000000     
    598        1      677    1.00000000     
    599        1      678    1.00000000     
    600        1      679    1.00000000     
    601        1      680    1.00000000     
    602        1      681    1.00000000     
    603        1      682    1.00000000     
    604        1      683    1.00000000     
    605        1      684    1.00000000     
    606        1      685    1.00000000     
    607        1      686    1.00000000     
    608        1      687    1.00000000     
    609        1      688    1.00000000     
    610        1      689    1.00000000     
    611        1      690    1.00000000     
    612        1      691    1.00000000     
    613        1      692    1.00000000     
    614        1      693    1.00000000     
    615        1      694    1.00000000     
    616        1      695    1.00000000     
    617        1      696    1.00000000     
    618        1      697    1.00000000     
    619        1      698    1.00000000     
    620        1      699    1.00000000     
    621        1      700    1.00000000     
    622        1      701    1.00000000     
    623        1      702    1.00000000     
    624        1      703    1.00000000     
    625        1      704    1.00000000     
    626        1      705    1.00000000     
    627        1      706    1.00000000     
    628        1      707    1.00000000     
    629        1      708    1.00000000     
    630        1      709    1.00000000     
    631        1      710    1.00000000     
    632        1      711    1.00000000     
    633        1      712    1.00000000     
    634        1      713    1.00000000     
    635        1      714    1.00000000     
    636        1      715    1.00000000     
    637        1      716    1.00000000     
    638        1      717    1.00000000     
    639        1      718    1.00000000     
    640        1      719    1.00000000     
    641        1      720    1.00000000     
    642        1      721    1.00000000     
    643        1      722    1.00000000     
    644        1      723    1.00000000     
    645        1      724    1.00000000     
    646        1      725    1.00000000     
    647        1      726    1.00000000     
    648        1      727    1.00000000     
    649        1      728    1.00000000     
    650        1      729    1.00000000     
    651        1      730    1.00000000     
    652        1      731    1.00000000     
    653        1      732    1.00000000     
    654        1      733    1.00000000     
    655        1      734    1.00000000     
    656        1      735    1.00000000     
    657        1      736    1.00000000     
    658        1      737    1.00000000     
    659        1      738    1.00000000     
    660        1      739    1.00000000     
    661        1      740    1.00000000     
    662        1      741    1.00000000     
    663        1      742    1.00000000     
    664        1      743    1.00000000     
    665        1      744    1.00000000     
    666        1      745    1.00000000     
    667        1      746    1.00000000     
    668        1      749    1.00000000     
    669        1      750    1.00000000     
    670        1      751    1.00000000     
    671        1      752    1.00000000     
    672        1      753    1.00000000     
    673        1      754    1.00000000     
    674        1      755    1.00000000     
    675        1      756    1.00000000     
    676        1      757    1.00000000     
    677        1      758    1.00000000     
    678        1      759    1.00000000     
    679        1      760    1.00000000     
    680        1      761    1.00000000     
    681        1      762    1.00000000     
    682        1      763    1.00000000     
    683        1      764    1.00000000     
    684        1      765    1.00000000     
    685        1      766    1.00000000     
    686        1      767    1.00000000     
    687        1      768    1.00000000     
    688        1      769    1.00000000     
    689        1      770    1.00000000     
    690        1      771    1.00000000     
    691        1      772    1.00000000     
    692        1      773    1.00000000     
    693        1      774    1.00000000     
    694        1      775    1.00000000     
    695        1      776    1.00000000     
    696        1      777    1.00000000     
    697        1      778    1.00000000     
    698        1      779    1.00000000     
    699        1      780    1.00000000     
    700        1      781    1.00000000     
    701        1      782    1.00000000     
    702        1      783    1.00000000     
    703        1      784    1.00000000     
    704        1      785    1.00000000     
    705        1      786    1.00000000     
    706        1      787    1.00000000     
    707        1      788    1.00000000     
    708        1      789    1.00000000     
    709        1      790    1.00000000     
    710        1      791    1.00000000     
    711        1      792    1.00000000     
    712        1      793    1.00000000     
    713        1      794    1.00000000     
    714        1      795    1.00000000     
    715        1      796    1.00000000     
    716        1      797    1.00000000     
    717        1      798    1.00000000     
    718        1      799    1.00000000     
    719        1      800    1.00000000     
    720        1      801    1.00000000     
    721        1      802    1.00000000     
    722        1      803    1.00000000     
    723        1      804    1.00000000     
    724        1      805    1.00000000     
    725        1      806    1.00000000     
    726        1      807    1.00000000     
    727        1      808    1.00000000     
    728        1      809    1.00000000     
    729        1      810    1.00000000     
    730        1      811    1.00000000     
    731        1      812    1.00000000     
    732        1      813    1.00000000     
    733        1      814    1.00000000     
    734        1      815    1.00000000     
    735        1      816    1.00000000     
    736        1      817    1.00000000     
    737        1      818    1.00000000     
    738        1      819    1.00000000     
    739        1      820    1.00000000     
    740        1      821    1.00000000     
    741        1      822    1.00000000     
    742        1      823    1.00000000     
    743        1      824    1.00000000     
    744        1      825    1.00000000     
    745        1      826    1.00000000     
    746        1      827    1.00000000     
    747        1      828    1.00000000     
    748        1      829    1.00000000     
    749        1      832    1.00000000     
    750        1      833    1.00000000     
    751        1      834    1.00000000     
    752        1      835    1.00000000     
    753        1      836    1.00000000     
    754        1      837    1.00000000     
    755        1      838    1.00000000     
    756        1      839    1.00000000     
    757        1      840    1.00000000     
    758        1      841    1.00000000     
    759        1      842    1.00000000     
    760        1      843    1.00000000     
    761        1      844    1.00000000     
    762        1      845    1.00000000     
    763        1      846    1.00000000     
    764        1      847    1.00000000     
    765        1      848    1.00000000     
    766        1      849    1.00000000     
    767        1      850    1.00000000     
    768        1      851    1.00000000     
    769        1      852    1.00000000     
    770        1      853    1.00000000     
    771        1      854    1.00000000     
    772        1      855    1.00000000     
    773        1      856    1.00000000     
    774        1      857    1.00000000     
    775        1      858    1.00000000     
    776        1      859    1.00000000     
    777        1      860    1.00000000     
    778        1      861    1.00000000     
    779        1      862    1.00000000     
    780        1      863    1.00000000     
    781        1      864    1.00000000     
    782        1      865    1.00000000     
    783        1      866    1.00000000     
    784        1      867    1.00000000     
    785        1      868    1.00000000     
    786        1      869    1.00000000     
    787        1      870    1.00000000     
    788        1      871    1.00000000     
    789        1      872    1.00000000     
    790        1      873    1.00000000     
    791        1      874    1.00000000     
    792        1      875    1.00000000     
    793        1      876    1.00000000     
    794        1      877    1.00000000     
    795        1      878    1.00000000     
    796        1      879    1.00000000     
    797        1      880    1.00000000     
    798        1      881    1.00000000     
    799        1      882    1.00000000     
    800        1      883    1.00000000     
    801        1      884    1.00000000     
    802        1      885    1.00000000     
    803        1      886    1.00000000     
    804        1      887    1.00000000     
    805        1      888    1.00000000     
    806        1      889    1.00000000     
    807        1      890    1.00000000     
    808        1      891    1.00000000     
    809        1      892    1.00000000     
    810        1      893    1.00000000     
    811        1      894    1.00000000     
    812        1      895    1.00000000     
    813        1      896    1.00000000     
    814        1      897    1.00000000     
    815        1      898    1.00000000     
    816        1      899    1.00000000     
    817        1      900    1.00000000     
    818        1      901    1.00000000     
    819        1      902    1.00000000     
    820        1      903    1.00000000     
    821        1      904    1.00000000     
    822        1      905    1.00000000     
    823        1      906    1.00000000     
    824        1      907    1.00000000     
    825        1      908    1.00000000     
    826        1      909    1.00000000     
    827        1      910    1.00000000     
    828        1      911    1.00000000     
    829        1      912    1.00000000     
    830        1      915    1.00000000     
    831        1      916    1.00000000     
    832        1      917    1.00000000     
    833        1      918    1.00000000     
    834        1      919    1.00000000     
    835        1      920    1.00000000     
    836        1      921    1.00000000     
    837        1      922    1.00000000     
    838        1      923    1.00000000     
    839        1      924    1.00000000     
    840        1      925    1.00000000     
    841        1      926    1.00000000     
    842        1      927    1.00000000     
    843        1      928    1.00000000     
    844        1      929    1.00000000     
    845        1      930    1.00000000     
    846        1      931    1.00000000     
    847        1      932    1.00000000     
    848        1      933    1.00000000     
    849        1      934    1.00000000     
    850        1      935    1.00000000     
    851        1      936    1.00000000     
    852        1      937    1.00000000     
    853        1      938    1.00000000     
    854        1      939    1.00000000     
    855        1      940    1.00000000     
    856        1      941    1.00000000     
    857        1      942    1.00000000     
    858        1      943    1.00000000     
    859        1      944    1.00000000     
    860        1      945    1.00000000     
    861        1      946    1.00000000     
    862        1      947    1.00000000     
    863        1      948    1.00000000     
    864        1      949    1.00000000     
    865        1      950    1.00000000     
    866        1      951    1.00000000     
    867        1      952    1.00000000     
    868        1      953    1.00000000     
    869        1      954    1.00000000     
    870        1      955    1.00000000     
    871        1      956    1.00000000     
    872        1      957    1.00000000     
    873        1      958    1.00000000     
    874        1      959    1.00000000     
    875        1      960    1.00000000     
    876        1      961    1.00000000     
    877        1      962    1.00000000     
    878        1      963    1.00000000     
    879        1      964    1.00000000     
    880        1      965    1.00000000     
    881        1      966    1.00000000     
    882        1      967    1.00000000     
    883        1      968    1.00000000     
    884        1      969    1.00000000     
    885        1      970    1.00000000     
    886        1      971    1.00000000     
    887        1      972    1.00000000     
    888        1      973    1.00000000     
    889        1      974    1.00000000     
    890        1      975    1.00000000     
    891        1      976    1.00000000     
    892        1      977    1.00000000     
    893        1      978    1.00000000     
    894        1      979    1.00000000     
    895        1      980    1.00000000     
    896        1      981    1.00000000     
    897        1      982    1.00000000     
    898        1      983    1.00000000     
    899        1      984    1.00000000     
    900        1      985    1.00000000     
    901        1      986    1.00000000     
    902        1      987    1.00000000     
    903        1      988    1.00000000     
    904        1      989    1.00000000     
    905        1      990    1.00000000     
    906        1      991    1.00000000     
    907        1      992    1.00000000     
    908        1      993    1.00000000     
    909        1      994    1.00000000     
    910        1      995    1.00000000     
    911        1      998    1.00000000     
    912        1      999    1.00000000     
    913        1     1000    1.00000000     
    914        1     1001    1.00000000     
    915        1     1002    1.00000000     
    916        1     1003    1.00000000     
    917        1     1004    1.00000000     
    918        1     1005    1.00000000     
    919        1     1006    1.00000000     
    920        1     1007    1.00000000     
    921        1     1008    1.00000000     
    922        1     1009    1.00000000     
    923        1     1010    1.00000000     
    924        1     1011    1.00000000     
    925        1     1012    1.00000000     
    926        1     1013    1.00000000     
    927        1     1014    1.00000000     
    928        1     1015    1.00000000     
    929        1     1016    1.00000000     
    930        1     1017    1.00000000     
    931        1     1018    1.00000000     
    932        1     1019    1.00000000     
    933        1     1020    1.00000000     
    934        1     1021    1.00000000     
    935        1     1022    1.00000000     
    936        1     1023    1.00000000     
    937        1     1024    1.00000000     
    938        1     1025    1.00000000     
    939        1     1026    1.00000000     
    940        1     1027    1.00000000     
    941        1     1028    1.00000000     
    942        1     1029    1.00000000     
    943        1     1030    1.00000000     
    944        1     1031    1.00000000     
    945        1     1032    1.00000000     
    946        1     1033    1.00000000     
    947        1     1034    1.00000000     
    948        1     1035    1.00000000     
    949        1     1036    1.00000000     
    950        1     1037    1.00000000     
    951        1     1038    1.00000000     
    952        1     1039    1.00000000     
    953        1     1040    1.00000000     
    954        1     1041    1.00000000     
    955        1     1042    1.00000000     
    956        1     1043    1.00000000     
    957        1     1044    1.00000000     
    958        1     1045    1.00000000     
    959        1     1046    1.00000000     
    960        1     1047    1.00000000     
    961        1     1048    1.00000000     
    962        1     1049    1.00000000     
    963        1     1050    1.00000000     
    964        1     1051    1.00000000     
    965        1     1052    1.00000000     
    966        1     1053    1.00000000     
    967        1     1054    1.00000000     
    968        1     1055    1.00000000     
    969        1     1056    1.00000000     
    970        1     1057    1.00000000     
    971        1     1058    1.00000000     
    972        1     1059    1.00000000     
    973        1     1060    1.00000000     
    974        1     1061    1.00000000     
    975        1     1062    1.00000000     
    976        1     1063    1.00000000     
    977        1     1064    1.00000000     
    978        1     1065    1.00000000     
    979        1     1066    1.00000000     
    980        1     1067    1.00000000     
    981        1     1068    1.00000000     
    982        1     1069    1.00000000     
    983        1     1070    1.00000000     
    984        1     1071    1.00000000     
    985        1     1072    1.00000000     
    986        1     1073    1.00000000     
    987        1     1074    1.00000000     
    988        1     1075    1.00000000     
    989        1     1078    1.00000000     
    990        1     1079    1.00000000     
    991        1     1080    1.00000000     
    992        1     1081    1.00000000     
    993        1     1082    1.00000000     
    994        1     1083    1.00000000     
    995        1     1084    1.00000000     
    996        1     1085    1.00000000     
    997        1     1086    1.00000000     
    998        1     1087    1.00000000     
    999        1     1088    1.00000000     
    1000       1     1089    1.00000000     
    1001       1     1090    1.00000000     
    1002       1     1091    1.00000000     
    1003       1     1092    1.00000000     
    1004       1     1093    1.00000000     
    1005       1     1094    1.00000000     
    1006       1     1095    1.00000000     
    1007       1     1096    1.00000000     
    1008       1     1097    1.00000000     
    1009       1     1098    1.00000000     
    1010       1     1099    1.00000000     
    1011       1     1100    1.00000000     
    1012       1     1101    1.00000000     
    1013       1     1102    1.00000000     
    1014       1     1103    1.00000000     
    1015       1     1104    1.00000000     
    1016       1     1105    1.00000000     
    1017       1     1106    1.00000000     
    1018       1     1107    1.00000000     
    1019       1     1108    1.00000000     
    1020       1     1109    1.00000000     
    1021       1     1110    1.00000000     
    1022       1     1111    1.00000000     
    1023       1     1112    1.00000000     
    1024       1     1113    1.00000000     
    1025       1     1114    1.00000000     
    1026       1     1115    1.00000000     
    1027       1     1116    1.00000000     
    1028       1     1117    1.00000000     
    1029       1     1118    1.00000000     
    1030       1     1119    1.00000000     
    1031       1     1120    1.00000000     
    1032       1     1121    1.00000000     
    1033       1     1122    1.00000000     
    1034       1     1123    1.00000000     
    1035       1     1124    1.00000000     
    1036       1     1125    1.00000000     
    1037       1     1126    1.00000000     
    1038       1     1127    1.00000000     
    1039       1     1128    1.00000000     
    1040       1     1129    1.00000000     
    1041       1     1130    1.00000000     
    1042       1     1131    1.00000000     
    1043       1     1132    1.00000000     
    1044       1     1133    1.00000000     
    1045       1     1134    1.00000000     
    1046       1     1135    1.00000000     
    1047       1     1136    1.00000000     
    1048       1     1137    1.00000000     
    1049       1     1138    1.00000000     
    1050       1     1139    1.00000000     
    1051       1     1140    1.00000000     
    1052       1     1141    1.00000000     
    1053       1     1142    1.00000000     
    1054       1     1143    1.00000000     
    1055       1     1144    1.00000000     
    1056       1     1145    1.00000000     
    1057       1     1146    1.00000000     
    1058       1     1147    1.00000000     
    1059       1     1148    1.00000000     
    1060       1     1149    1.00000000     
    1061       1     1150    1.00000000     
    1062       1     1151    1.00000000     
    1063       1     1152    1.00000000     
    1064       1     1153    1.00000000     
    1065       1     1154    1.00000000     
    1066       1     1155    1.00000000     
    1067       1     1158    1.00000000     
    1068       1     1159    1.00000000     
    1069       1     1160    1.00000000     
    1070       1     1161    1.00000000     
    1071       1     1162    1.00000000     
    1072       1     1163    1.00000000     
    1073       1     1164    1.00000000     
    1074       1     1165    1.00000000     
    1075       1     1166    1.00000000     
    1076       1     1167    1.00000000     
    1077       1     1168    1.00000000     
    1078       1     1169    1.00000000     
    1079       1     1170    1.00000000     
    1080       1     1171    1.00000000     
    1081       1     1172    1.00000000     
    1082       1     1173    1.00000000     
    1083       1     1174    1.00000000     
    1084       1     1175    1.00000000     
    1085       1     1176    1.00000000     
    1086       1     1177    1.00000000     
    1087       1     1178    1.00000000     
    1088       1     1179    1.00000000     
    1089       1     1180    1.00000000     
    1090       1     1181    1.00000000     
    1091       1     1182    1.00000000     
    1092       1     1183    1.00000000     
    1093       1     1184    1.00000000     
    1094       1     1185    1.00000000     
    1095       1     1186    1.00000000     
    1096       1     1187    1.00000000     
    1097       1     1188    1.00000000     
    1098       1     1189    1.00000000     
    1099       1     1190    1.00000000     
    1100       1     1191    1.00000000     
    1101       1     1192    1.00000000     
    1102       1     1193    1.00000000     
    1103       1     1194    1.00000000     
    1104       1     1195    1.00000000     
    1105       1     1196    1.00000000     
    1106       1     1197    1.00000000     
    1107       1     1198    1.00000000     
    1108       1     1199    1.00000000     
    1109       1     1200    1.00000000     
    1110       1     1201    1.00000000     
    1111       1     1202    1.00000000     
    1112       1     1203    1.00000000     
    1113       1     1204    1.00000000     
    1114       1     1205    1.00000000     
    1115       1     1206    1.00000000     
    1116       1     1207    1.00000000     
    1117       1     1208    1.00000000     
    1118       1     1209    1.00000000     
    1119       1     1210    1.00000000     
    1120       1     1211    1.00000000     
    1121       1     1212    1.00000000     
    1122       1     1213    1.00000000     
    1123       1     1214    1.00000000     
    1124       1     1215    1.00000000     
    1125       1     1216    1.00000000     
    1126       1     1217    1.00000000     
    1127       1     1218    1.00000000     
    1128       1     1219    1.00000000     
    1129       1     1220    1.00000000     
    1130       1     1221    1.00000000     
    1131       1     1222    1.00000000     
    1132       1     1223    1.00000000     
    1133       1     1224    1.00000000     
    1134       1     1225    1.00000000     
    1135       1     1226    1.00000000     
    1136       1     1227    1.00000000     
    1137       1     1228    1.00000000     
    1138       1     1229    1.00000000     
    1139       1     1230    1.00000000     
    1140       1     1231    1.00000000     
    1141       1     1232    1.00000000     
    1142       1     1233    1.00000000     
    1143       1     1234    1.00000000     
    1144       1     1235    1.00000000     
    1145       1     1236    1.00000000     
    1146       1     1237    1.00000000     
    1147       1     1238    1.00000000     
    1148       1     1241    1.00000000     
    1149       1     1242    1.00000000     
    1150       1     1243    1.00000000     
    1151       1     1244    1.00000000     
    1152       1     1245    1.00000000     
    1153       1     1246    1.00000000     
    1154       1     1247    1.00000000     
    1155       1     1248    1.00000000     
    1156       1     1249    1.00000000     
    1157       1     1250    1.00000000     
    1158       1     1251    1.00000000     
    1159       1     1252    1.00000000     
    1160       1     1253    1.00000000     
    1161       1     1254    1.00000000     
    1162       1     1255    1.00000000     
    1163       1     1256    1.00000000     
    1164       1     1257    1.00000000     
    1165       1     1258    1.00000000     
    1166       1     1259    1.00000000     
    1167       1     1260    1.00000000     
    1168       1     1261    1.00000000     
    1169       1     1262    1.00000000     
    1170       1     1263    1.00000000     
    1171       1     1264    1.00000000     
    1172       1     1265    1.00000000     
    1173       1     1266    1.00000000     
    1174       1     1267    1.00000000     
    1175       1     1268    1.00000000     
    1176       1     1269    1.00000000     
    1177       1     1270    1.00000000     
    1178       1     1271    1.00000000     
    1179       1     1272    1.00000000     
    1180       1     1273    1.00000000     
    1181       1     1274    1.00000000     
    1182       1     1275    1.00000000     
    1183       1     1276    1.00000000     
    1184       1     1277    1.00000000     
    1185       1     1278    1.00000000     
    1186       1     1279    1.00000000     
    1187       1     1280    1.00000000     
    1188       1     1281    1.00000000     
    1189       1     1282    1.00000000     
    1190       1     1283    1.00000000     
    1191       1     1284    1.00000000     
    1192       1     1285    1.00000000     
    1193       1     1286    1.00000000     
    1194       1     1287    1.00000000     
    1195       1     1288    1.00000000     
    1196       1     1289    1.00000000     
    1197       1     1290    1.00000000     
    1198       1     1291    1.00000000     
    1199       1     1292    1.00000000     
    1200       1     1293    1.00000000     
    1201       1     1294    1.00000000     
    1202       1     1295    1.00000000     
    1203       1     1296    1.00000000     
    1204       1     1297    1.00000000     
    1205       1     1298    1.00000000     
    1206       1     1299    1.00000000     
    1207       1     1300    1.00000000     
    1208       1     1301    1.00000000     
    1209       1     1302    1.00000000     
    1210       1     1303    1.00000000     
    1211       1     1304    1.00000000     
    1212       1     1305    1.00000000     
    1213       1     1306    1.00000000     
    1214       1     1307    1.00000000     
    1215       1     1308    1.00000000     
    1216       1     1309    1.00000000     
    1217       1     1310    1.00000000     
    1218       1     1311    1.00000000     
    1219       1     1312    1.00000000     
    1220       1     1313    1.00000000     
    1221       1     1314    1.00000000     
    1222       1     1315    1.00000000     
    1223       1     1316    1.00000000     
    1224       1     1317    1.00000000     
    1225       1     1318    1.00000000     
    1226       1     1320    1.00000000     
    1227       1     1321    1.00000000     
    1228       1     1322    1.00000000     
    1229       1     1323    1.00000000     
    1230       1     1324    1.00000000     
    1231       1     1325    1.00000000     
    1232       1     1326    1.00000000     
    1233       1     1327    1.00000000     
    1234       1     1328    1.00000000     
    1235       1     1329    1.00000000     
    1236       1     1330    1.00000000     
    1237       1     1331    1.00000000     
    1238       1     1332    1.00000000     
    1239       1     1333    1.00000000     
    1240       1     1334    1.00000000     
    1241       1     1335    1.00000000     
    1242       1     1336    1.00000000     
    1243       1     1337    1.00000000     
    1244       1     1338    1.00000000     
    1245       1     1339    1.00000000     
    1246       1     1340    1.00000000     
    1247       1     1341    1.00000000     
    1248       1     1342    1.00000000     
    1249       1     1343    1.00000000     
    1250       1     1344    1.00000000     
    1251       1     1345    1.00000000     
    1252       1     1346    1.00000000     
    1253       1     1347    1.00000000     
    1254       1     1348    1.00000000     
    1255       1     1349    1.00000000     
    1256       1     1350    1.00000000     
    1257       1     1351    1.00000000     
    1258       1     1352    1.00000000     
    1259       1     1353    1.00000000     
    1260       1     1354    1.00000000     
    1261       1     1355    1.00000000     
    1262       1     1356    1.00000000     
    1263       1     1357    1.00000000     
    1264       1     1358    1.00000000     
    1265       1     1359    1.00000000     
    1266       1     1360    1.00000000     
    1267       1     1361    1.00000000     
    1268       1     1362    1.00000000     
    1269       1     1363    1.00000000     
    1270       1     1364    1.00000000     
    1271       1     1365    1.00000000     
    1272       1     1366    1.00000000     
    1273       1     1367    1.00000000     
    1274       1     1368    1.00000000     
    1275       1     1369    1.00000000     
    1276       1     1370    1.00000000     
    1277       1     1371    1.00000000     
    1278       1     1372    1.00000000     
    1279       1     1373    1.00000000     
    1280       1     1374    1.00000000     
    1281       1     1375    1.00000000     
    1282       1     1376    1.00000000     
    1283       1     1377    1.00000000     
    1284       1     1378    1.00000000     
    1285       1     1379    1.00000000     
    1286       1     1380    1.00000000     
    1287       1     1381    1.00000000     
    1288       1     1382    1.00000000     
    1289       1     1383    1.00000000     
    1290       1     1384    1.00000000     
    1291       1     1385    1.00000000     
    1292       1     1386    1.00000000     
    1293       1     1387    1.00000000     
    1294       1     1388    1.00000000     
    1295       1     1389    1.00000000     
    1296       1     1390    1.00000000     
    1297       1     1391    1.00000000     
    1298       1     1392    1.00000000     
    1299       1     1393    1.00000000     
    1300       1     1394    1.00000000     
    1301       1     1395    1.00000000     
    1302       1     1396    1.00000000     
    1303       1     1397    1.00000000     
    1304       1     1400    1.00000000     
    1305       1     1401    1.00000000     
    1306       1     1402    1.00000000     
    1307       1     1403    1.00000000     
    1308       1     1404    1.00000000     
    1309       1     1405    1.00000000     
    1310       1     1406    1.00000000     
    1311       1     1407    1.00000000     
    1312       1     1408    1.00000000     
    1313       1     1409    1.00000000     
    1314       1     1410    1.00000000     
    1315       1     1411    1.00000000     
    1316       1     1412    1.00000000     
    1317       1     1413    1.00000000     
    1318       1     1414    1.00000000     
    1319       1     1415    1.00000000     
    1320       1     1416    1.00000000     
    1321       1     1417    1.00000000     
    1322       1     1418    1.00000000     
    1323       1     1419    1.00000000     
    1324       1     1420    1.00000000     
    1325       1     1421    1.00000000     
    1326       1     1422    1.00000000     
    1327       1     1423    1.00000000     
    1328       1     1424    1.00000000     
    1329       1     1425    1.00000000     
    1330       1     1426    1.00000000     
    1331       1     1427    1.00000000     
    1332       1     1428    1.00000000     
    1333       1     1429    1.00000000     
    1334       1     1430    1.00000000     
    1335       1     1431    1.00000000     
    1336       1     1432    1.00000000     
    1337       1     1433    1.00000000     
    1338       1     1434    1.00000000     
    1339       1     1435    1.00000000     
    1340       1     1436    1.00000000     
    1341       1     1437    1.00000000     
    1342       1     1438    1.00000000     
    1343       1     1439    1.00000000     
    1344       1     1440    1.00000000     
    1345       1     1441    1.00000000     
    1346       1     1442    1.00000000     
    1347       1     1443    1.00000000     
    1348       1     1444    1.00000000     
    1349       1     1445    1.00000000     
    1350       1     1446    1.00000000     
    1351       1     1447    1.00000000     
    1352       1     1448    1.00000000     
    1353       1     1449    1.00000000     
    1354       1     1450    1.00000000     
    1355       1     1451    1.00000000     
    1356       1     1452    1.00000000     
    1357       1     1453    1.00000000     
    1358       1     1454    1.00000000     
    1359       1     1455    1.00000000     
    1360       1     1456    1.00000000     
    1361       1     1457    1.00000000     
    1362       1     1458    1.00000000     
    1363       1     1459    1.00000000     
    1364       1     1460    1.00000000     
    1365       1     1461    1.00000000     
    1366       1     1462    1.00000000     
    1367       1     1463    1.00000000     
    1368       1     1464    1.00000000     
    1369       1     1465    1.00000000     
    1370       1     1466    1.00000000     
    1371       1     1467    1.00000000     
    1372       1     1468    1.00000000     
    1373       1     1469    1.00000000     
    1374       1     1470    1.00000000     
    1375       1     1471    1.00000000     
    1376       1     1472    1.00000000     
    1377       1     1473    1.00000000     
    1378       1     1474    1.00000000     
    1379       1     1475    1.00000000     
    1380       1     1476    1.00000000     
    1381       1     1477    1.00000000     
    1382       1     1478    1.00000000     
    1383       1     1479    1.00000000     
    1384       1     1480    1.00000000     
    1385       1     1481    1.00000000     
    1386       1     1482    1.00000000     
    1387       1     1483    1.00000000     
    1388       1     1484    1.00000000     
    1389       1     1487    1.00000000     
    1390       1     1488    1.00000000     
    1391       1     1489    1.00000000     
    1392       1     1490    1.00000000     
    1393       1     1491    1.00000000     
    1394       1     1492    1.00000000     
    1395       1     1493    1.00000000     
    1396       1     1494    1.00000000     
    1397       1     1495    1.00000000     
    1398       1     1496    1.00000000     
    1399       1     1497    1.00000000     
    1400       1     1498    1.00000000     
    1401       1     1499    1.00000000     
    1402       1     1500    1.00000000     
    1403       1     1501    1.00000000     
    1404       1     1502    1.00000000     
    1405       1     1503    1.00000000     
    1406       1     1504    1.00000000     
    1407       1     1505    1.00000000     
    1408       1     1506    1.00000000     
    1409       1     1507    1.00000000     
    1410       1     1508    1.00000000     
    1411       1     1509    1.00000000     
    1412       1     1510    1.00000000     
    1413       1     1511    1.00000000     
    1414       1     1512    1.00000000     
    1415       1     1513    1.00000000     
    1416       1     1514    1.00000000     
    1417       1     1515    1.00000000     
    1418       1     1516    1.00000000     
    1419       1     1517    1.00000000     
    1420       1     1518    1.00000000     
    1421       1     1519    1.00000000     
    1422       1     1520    1.00000000     
    1423       1     1521    1.00000000     
    1424       1     1522    1.00000000     
    1425       1     1523    1.00000000     
    1426       1     1524    1.00000000     
    1427       1     1525    1.00000000     
    1428       1     1526    1.00000000     
    1429       1     1527    1.00000000     
    1430       1     1528    1.00000000     
    1431       1     1529    1.00000000     
    1432       1     1530    1.00000000     
    1433       1     1531    1.00000000     
    1434       1     1532    1.00000000     
    1435       1     1533    1.00000000     
    1436       1     1534    1.00000000     
    1437       1     1535    1.00000000     
    1438       1     1536    1.00000000     
    1439       1     1537    1.00000000     
    1440       1     1538    1.00000000     
    1441       1     1539    1.00000000     
    1442       1     1540    1.00000000     
    1443       1     1541    1.00000000     
    1444       1     1542    1.00000000     
    1445       1     1543    1.00000000     
    1446       1     1544    1.00000000     
    1447       1     1545    1.00000000     
    1448       1     1546    1.00000000     
    1449       1     1547    1.00000000     
    1450       1     1548    1.00000000     
    1451       1     1549    1.00000000     
    1452       1     1550    1.00000000     
    1453       1     1551    1.00000000     
    1454       1     1552    1.00000000     
    1455       1     1553    1.00000000     
    1456       1     1554    1.00000000     
    1457       1     1555    1.00000000     
    1458       1     1556    1.00000000     
    1459       1     1557    1.00000000     
    1460       1     1558    1.00000000     
    1461       1     1559    1.00000000     
    1462       1     1560    1.00000000     
    1463       1     1561    1.00000000     
    1464       1     1562    1.00000000     
    1465       1     1563    1.00000000     
    1466       1     1564    1.00000000     
    1467       1     1565    1.00000000     
    1468       1     1566    1.00000000     
    1469       1     1567    1.00000000     
    1470       1     1568    1.00000000     
    1471       1     1569    1.00000000     
    1472       1     1570    1.00000000     
    1473       1     1571    1.00000000     
    1474       1     1572    1.00000000     
    1475       1     1573    1.00000000     
    1476       1     1574    1.00000000     
    1477       1     1575    1.00000000     
    1478       1     1576    1.00000000     
    1479       1     1577    1.00000000     
    1480       1     1578    1.00000000     
    1481       1     1579    1.00000000     
    1482       1     1582    1.00000000     
    1483       1     1583    1.00000000     
    1484       1     1584    1.00000000     
    1485       1     1585    1.00000000     
    1486       1     1586    1.00000000     
    1487       1     1587    1.00000000     
    1488       1     1588    1.00000000     
    1489       1     1589    1.00000000     
    1490       1     1590    1.00000000     
    1491       1     1591    1.00000000     
    1492       1     1592    1.00000000     
    1493       1     1593    1.00000000     
    1494       1     1594    1.00000000     
    1495       1     1595    1.00000000     
    1496       1     1596    1.00000000     
    1497       1     1597    1.00000000     
    1498       1     1598    1.00000000     
    1499       1     1599    1.00000000     
    1500       1     1600    1.00000000     
    1501       1     1601    1.00000000     
    1502       1     1602    1.00000000     
    1503       1     1603    1.00000000     
    1504       1     1604    1.00000000     
    1505       1     1605    1.00000000     
    1506       1     1606    1.00000000     
    1507       1     1607    1.00000000     
    1508       1     1608    1.00000000     
    1509       1     1609    1.00000000     
    1510       1     1610    1.00000000     
    1511       1     1611    1.00000000     
    1512       1     1612    1.00000000     
    1513       1     1613    1.00000000     
    1514       1     1614    1.00000000     
    1515       1     1615    1.00000000     
    1516       1     1616    1.00000000     
    1517       1     1617    1.00000000     
    1518       1     1618    1.00000000     
    1519       1     1619    1.00000000     
    1520       1     1620    1.00000000     
    1521       1     1621    1.00000000     
    1522       1     1622    1.00000000     
    1523       1     1623    1.00000000     
    1524       1     1624    1.00000000     
    1525       1     1625    1.00000000     
    1526       1     1626    1.00000000     
    1527       1     1627    1.00000000     
    1528       1     1628    1.00000000     
    1529       1     1629    1.00000000     
    1530       1     1630    1.00000000     
    1531       1     1631    1.00000000     
    1532       1     1632    1.00000000     
    1533       1     1633    1.00000000     
    1534       1     1634    1.00000000     
    1535       1     1635    1.00000000     
    1536       1     1636    1.00000000     
    1537       1     1637    1.00000000     
    1538       1     1638    1.00000000     
    1539       1     1639    1.00000000     
    1540       1     1640    1.00000000     
    1541       1     1641    1.00000000     
    1542       1     1642    1.00000000     
    1543       1     1643    1.00000000     
    1544       1     1644    1.00000000     
    1545       1     1645    1.00000000     
    1546       1     1646    1.00000000     
    1547       1     1647    1.00000000     
    1548       1     1648    1.00000000     
    1549       1     1649    1.00000000     
    1550       1     1650    1.00000000     
    1551       1     1651    1.00000000     
    1552       1     1652    1.00000000     
    1553       1     1653    1.00000000     
    1554       1     1654    1.00000000     
    1555       1     1655    1.00000000     
    1556       1     1656    1.00000000     
    1557       1     1657    1.00000000     
    1558       1     1658    1.00000000     
    1559       1     1659    1.00000000     
    1560       1     1660    1.00000000     
    1561       1     1661    1.00000000     
    1562       1     1662    1.00000000     
    1563       1     1663    1.00000000     
    1564       1     1664    1.00000000     
    1565       1     1665    1.00000000     
    1566       1     1666    1.00000000     
    1567       1     1667    1.00000000     
    1568       1     1668    1.00000000     
    1569       1     1669    1.00000000     
    1570       1     1670    1.00000000     
    1571       1     1671    1.00000000     
    1572       1     1672    1.00000000     
    1573       1     1673    1.00000000     
    1574       1     1674    1.00000000     
    1575       1     1675    1.00000000     
    1576       1     1676    1.00000000     
    1577       1     1677    1.00000000     
    1578       1     1678    1.00000000     
    1579       1     1679    1.00000000     
    1580       1     1680    1.00000000     
    1581       1     1681    1.00000000     
    1582       1     1682    1.00000000     
    1583       1     1683    1.00000000     
    1584       1     1684    1.00000000     
    1585       1     1685    1.00000000     
    1586       1     1686    1.00000000     
    1587       1     1687    1.00000000     
    1588       1     1688    1.00000000     
    1589       1     1689    1.00000000     
    1590       1     1690    1.00000000     
    1591       1     1691    1.00000000     
    1592       1     1694    1.00000000     
    1593       1     1695    1.00000000     
    1594       1     1696    1.00000000     
    1595       1     1697    1.00000000     
    1596       1     1698    1.00000000     
    1597       1     1699    1.00000000     
    1598       1     1700    1.00000000     
    1599       1     1701    1.00000000     
    1600       1     1702    1.00000000     
    1601       1     1703    1.00000000     
    1602       1     1704    1.00000000     
    1603       1     1705    1.00000000     
    1604       1     1706    1.00000000     
    1605       1     1707    1.00000000     
    1606       1     1708    1.00000000     
    1607       1     1709    1.00000000     
    1608       1     1710    1.00000000     
    1609       1     1711    1.00000000     
    1610       1     1712    1.00000000     
    1611       1     1713    1.00000000     
    1612       1     1714    1.00000000     
    1613       1     1715    1.00000000     
    1614       1     1716    1.00000000     
    1615       1     1717    1.00000000     
    1616       1     1718    1.00000000     
    1617       1     1719    1.00000000     
    1618       1     1720    1.00000000     
    1619       1     1721    1.00000000     
    1620       1     1722    1.00000000     
    1621       1     1723    1.00000000     
    1622       1     1724    1.00000000     
    1623       1     1725    1.00000000     
    1624       1     1726    1.00000000     
    1625       1     1727    1.00000000     
    1626       1     1728    1.00000000     
    1627       1     1729    1.00000000     
    1628       1     1730    1.00000000     
    1629       1     1731    1.00000000     
    1630       1     1732    1.00000000     
    1631       1     1733    1.00000000     
    1632       1     1734    1.00000000     
    1633       1     1735    1.00000000     
    1634       1     1736    1.00000000     
    1635       1     1737    1.00000000     
    1636       1     1738    1.00000000     
    1637       1     1739    1.00000000     
    1638       1     1740    1.00000000     
    1639       1     1741    1.00000000     
    1640       1     1742    1.00000000     
    1641       1     1743    1.00000000     
    1642       1     1744    1.00000000     
    1643       1     1745    1.00000000     
    1644       1     1746    1.00000000     
    1645       1     1747    1.00000000     
    1646       1     1748    1.00000000     
    1647       1     1749    1.00000000     
    1648       1     1750    1.00000000     
    1649       1     1751    1.00000000     
    1650       1     1752    1.00000000     
    1651       1     1753    1.00000000     
    1652       1     1754    1.00000000     
    1653       1     1755    1.00000000     
    1654       1     1756    1.00000000     
    1655       1     1757    1.00000000     
    1656       1     1758    1.00000000     
    1657       1     1759    1.00000000     
    1658       1     1760    1.00000000     
    1659       1     1761    1.00000000     
    1660       1     1762    1.00000000     
    1661       1     1763    1.00000000     
    1662       1     1764    1.00000000     
    1663       1     1765    1.00000000     
    1664       1     1766    1.00000000     
    1665       1     1767    1.00000000     
    1666       1     1768    1.00000000     
    1667       1     1769    1.00000000     
    1668       1     1770    1.00000000     
    1669       1     1771    1.00000000     
    1670       1     1772    1.00000000     
    1671       1     1773    1.00000000     
    1672       1     1774    1.00000000     
    1673       1     1775    1.00000000     
    1674       1     1778    1.00000000     
    1675       1     1779    1.00000000     
    1676       1     1780    1.00000000     
    1677       1     1781    1.00000000     
    1678       1     1782    1.00000000     
    1679       1     1783    1.00000000     
    1680       1     1784    1.00000000     
    1681       1     1785    1.00000000     
    1682       1     1786    1.00000000     
    1683       1     1787    1.00000000     
    1684       1     1788    1.00000000     
    1685       1     1789    1.00000000     
    1686       1     1790    1.00000000     
    1687       1     1791    1.00000000     
    1688       1     1792    1.00000000     
    1689       1     1793    1.00000000     
    1690       1     1794    1.00000000     
    1691       1     1795    1.00000000     
    1692       1     1796    1.00000000     
    1693       1     1797    1.00000000     
    1694       1     1798    1.00000000     
    1695       1     1799    1.00000000     
    1696       1     1800    1.00000000     
    1697       1     1801    1.00000000     
    1698       1     1802    1.00000000     
    1699       1     1803    1.00000000     
    1700       1     1804    1.00000000     
    1701       1     1805    1.00000000     
    1702       1     1806    1.00000000     
    1703       1     1807    1.00000000     
    1704       1     1808    1.00000000     
    1705       1     1809    1.00000000     
    1706       1     1810    1.00000000     
    1707       1     1811    1.00000000     
    1708       1     1812    1.00000000     
    1709       1     1813    1.00000000     
    1710       1     1814    1.00000000     
    1711       1     1815    1.00000000     
    1712       1     1816    1.00000000     
    1713       1     1817    1.00000000     
    1714       1     1818    1.00000000     
    1715       1     1819    1.00000000     
    1716       1     1820    1.00000000     
    1717       1     1821    1.00000000     
    1718       1     1822    1.00000000     
    1719       1     1823    1.00000000     
    1720       1     1824    1.00000000     
    1721       1     1825    1.00000000     
    1722       1     1826    1.00000000     
    1723       1     1827    1.00000000     
    1724       1     1828    1.00000000     
    1725       1     1829    1.00000000     
    1726       1     1830    1.00000000     
    1727       1     1831    1.00000000     
    1728       1     1832    1.00000000     
    1729       1     1833    1.00000000     
    1730       1     1834    1.00000000     
    1731       1     1835    1.00000000     
    1732       1     1836    1.00000000     
    1733       1     1837    1.00000000     
    1734       1     1838    1.00000000     
    1735       1     1839    1.00000000     
    1736       1     1840    1.00000000     
    1737       1     1841    1.00000000     
    1738       1     1842    1.00000000     
    1739       1     1843    1.00000000     
    1740       1     1844    1.00000000     
    1741       1     1845    1.00000000     
    1742       1     1846    1.00000000     
    1743       1     1847    1.00000000     
    1744       1     1848    1.00000000     
    1745       1     1849    1.00000000     
    1746       1     1850    1.00000000     
    1747       1     1851    1.00000000     
    1748       1     1852    1.00000000     
    1749       1     1855    1.00000000     
    1750       1     1856    1.00000000     
    1751       1     1857    1.00000000     
    1752       1     1858    1.00000000     
    1753       1     1859    1.00000000     
    1754       1     1860    1.00000000     
    1755       1     1861    1.00000000     
    1756       1     1862    1.00000000     
    1757       1     1863    1.00000000     
    1758       1     1864    1.00000000     
    1759       1     1865    1.00000000     
    1760       1     1866    1.00000000     
    1761       1     1867    1.00000000     
    1762       1     1868    1.00000000     
    1763       1     1869    1.00000000     
    1764       1     1870    1.00000000     
    1765       1     1871    1.00000000     
    1766       1     1872    1.00000000     
    1767       1     1873    1.00000000     
    1768       1     1874    1.00000000     
    1769       1     1875    1.00000000     
    1770       1     1876    1.00000000     
    1771       1     1877    1.00000000     
    1772       1     1878    1.00000000     
    1773       1     1879    1.00000000     
    1774       1     1880    1.00000000     
    1775       1     1881    1.00000000     
    1776       1     1882    1.00000000     
    1777       1     1883    1.00000000     
    1778       1     1884    1.00000000     
    1779       1     1885    1.00000000     
    1780       1     1886    1.00000000     
    1781       1     1887    1.00000000     
    1782       1     1888    1.00000000     
    1783       1     1889    1.00000000     
    1784       1     1890    1.00000000     
    1785       1     1891    1.00000000     
    1786       1     1892    1.00000000     
    1787       1     1893    1.00000000     
    1788       1     1894    1.00000000     
    1789       1     1895    1.00000000     
    1790       1     1896    1.00000000     
    1791       1     1897    1.00000000     
    1792       1     1898    1.00000000     
    1793       1     1899    1.00000000     
    1794       1     1900    1.00000000     
    1795       1     1901    1.00000000     
    1796       1     1902    1.00000000     
    1797       1     1903    1.00000000     
    1798       1     1904    1.00000000     
    1799       1     1905    1.00000000     
    1800       1     1906    1.00000000     
    1801       1     1907    1.00000000     
    1802       1     1908    1.00000000     
    1803       1     1909    1.00000000     
    1804       1     1910    1.00000000     
    1805       1     1911    1.00000000     
    1806       1     1912    1.00000000     
    1807       1     1913    1.00000000     
    1808       1     1914    1.00000000     
    1809       1     1915    1.00000000     
    1810       1     1916    1.00000000     
    1811       1     1917    1.00000000     
    1812       1     1918    1.00000000     
    1813       1     1919    1.00000000     
    1814       1     1920    1.00000000     
    1815       1     1921    1.00000000     
    1816       1     1922    1.00000000     
    1817       1     1923    1.00000000     
    1818       1     1924    1.00000000     
    1819       1     1925    1.00000000     
    1820       1     1926    1.00000000     
    1821       1     1927    1.00000000     
    1822       1     1928    1.00000000     
    1823       1     1931    1.00000000     
    1824       1     1932    1.00000000     
    1825       1     1933    1.00000000     
    1826       1     1934    1.00000000     
    1827       1     1935    1.00000000     
    1828       1     1936    1.00000000     
    1829       1     1937    1.00000000     
    1830       1     1938    1.00000000     
    1831       1     1939    1.00000000     
    1832       1     1940    1.00000000     
    1833       1     1941    1.00000000     
    1834       1     1942    1.00000000     
    1835       1     1943    1.00000000     
    1836       1     1944    1.00000000     
    1837       1     1945    1.00000000     
    1838       1     1946    1.00000000     
    1839       1     1947    1.00000000     
    1840       1     1948    1.00000000     
    1841       1     1949    1.00000000     
    1842       1     1950    1.00000000     
    1843       1     1951    1.00000000     
    1844       1     1952    1.00000000     
    1845       1     1953    1.00000000     
    1846       1     1954    1.00000000     
    1847       1     1955    1.00000000     
    1848       1     1956    1.00000000     
    1849       1     1957    1.00000000     
    1850       1     1958    1.00000000     
    1851       1     1959    1.00000000     
    1852       1     1960    1.00000000     
    1853       1     1961    1.00000000     
    1854       1     1962    1.00000000     
    1855       1     1963    1.00000000     
    1856       1     1964    1.00000000     
    1857       1     1965    1.00000000     
    1858       1     1966    1.00000000     
    1859       1     1967    1.00000000     
    1860       1     1968    1.00000000     
    1861       1     1969    1.00000000     
    1862       1     1970    1.00000000     
    1863       1     1971    1.00000000     
    1864       1     1972    1.00000000     
    1865       1     1973    1.00000000     
    1866       1     1974    1.00000000     
    1867       1     1975    1.00000000     
    1868       1     1976    1.00000000     
    1869       1     1977    1.00000000     
    1870       1     1978    1.00000000     
    1871       1     1979    1.00000000     
    1872       1     1980    1.00000000     
    1873       1     1981    1.00000000     
    1874       1     1982    1.00000000     
    1875       1     1983    1.00000000     
    1876       1     1984    1.00000000     
    1877       1     1985    1.00000000     
    1878       1     1986    1.00000000     
    1879       1     1987    1.00000000     
    1880       1     1988    1.00000000     
    1881       1     1989    1.00000000     
    1882       1     1990    1.00000000     
    1883       1     1991    1.00000000     
    1884       1     1992    1.00000000     
    1885       1     1993    1.00000000     
    1886       1     1994    1.00000000     
    1887       1     1995    1.00000000     
    1888       1     1996    1.00000000     
    1889       1     1997    1.00000000     
    1890       1     1998    1.00000000     
    1891       1     1999    1.00000000     
    1892       1     2000    1.00000000     
    1893       1     2001    1.00000000     
    1894       1     2002    1.00000000     
    1895       1     2003    1.00000000     
    1896       1     2006    1.00000000     
    1897       1     2007    1.00000000     
    1898       1     2008    1.00000000     
    1899       1     2009    1.00000000     
    1900       1     2010    1.00000000     
    1901       1     2011    1.00000000     
    1902       1     2012    1.00000000     
    1903       1     2013    1.00000000     
    1904       1     2014    1.00000000     
    1905       1     2015    1.00000000     
    1906       1     2016    1.00000000     
    1907       1     2017    1.00000000     
    1908       1     2018    1.00000000     
    1909       1     2019    1.00000000     
    1910       1     2020    1.00000000     
    1911       1     2021    1.00000000     
    1912       1     2022    1.00000000     
    1913       1     2023    1.00000000     
    1914       1     2024    1.00000000     
    1915       1     2025    1.00000000     
    1916       1     2026    1.00000000     
    1917       1     2027    1.00000000     
    1918       1     2028    1.00000000     
    1919       1     2029    1.00000000     
    1920       1     2030    1.00000000     
    1921       1     2031    1.00000000     
    1922       1     2032    1.00000000     
    1923       1     2033    1.00000000     
    1924       1     2034    1.00000000     
    1925       1     2035    1.00000000     
    1926       1     2036    1.00000000     
    1927       1     2037    1.00000000     
    1928       1     2038    1.00000000     
    1929       1     2039    1.00000000     
    1930       1     2040    1.00000000     
    1931       1     2041    1.00000000     
    1932       1     2042    1.00000000     
    1933       1     2043    1.00000000     
    1934       1     2044    1.00000000     
    1935       1     2045    1.00000000     
    1936       1     2046    1.00000000     
    1937       1     2047    1.00000000     
    1938       1     2048    1.00000000     
    1939       1     2049    1.00000000     
    1940       1     2050    1.00000000     
    1941       1     2051    1.00000000     
    1942       1     2052    1.00000000     
    1943       1     2053    1.00000000     
    1944       1     2054    1.00000000     
    1945       1     2055    1.00000000     
    1946       1     2056    1.00000000     
    1947       1     2057    1.00000000     
    1948       1     2058    1.00000000     
    1949       1     2059    1.00000000     
    1950       1     2060    1.00000000     
    1951       1     2061    1.00000000     
    1952       1     2062    1.00000000     
    1953       1     2063    1.00000000     
    1954       1     2064    1.00000000     
    1955       1     2065    1.00000000     
    1956       1     2066    1.00000000     
    1957       1     2067    1.00000000     
    1958       1     2068    1.00000000     
    1959       1     2069    1.00000000     
    1960       1     2070    1.00000000     
    1961       1     2071    1.00000000     
    1962       1     2072    1.00000000     
    1963       1     2073    1.00000000     
    1964       1     2074    1.00000000     
    1965       1     2077    1.00000000     
    1966       1     2078    1.00000000     
    1967       1     2079    1.00000000     
    1968       1     2080    1.00000000     
    1969       1     2081    1.00000000     
    1970       1     2082    1.00000000     
    1971       1     2083    1.00000000     
    1972       1     2084    1.00000000     
    1973       1     2085    1.00000000     
    1974       1     2086    1.00000000     
    1975       1     2087    1.00000000     
    1976       1     2088    1.00000000     
    1977       1     2089    1.00000000     
    1978       1     2090    1.00000000     
    1979       1     2091    1.00000000     
    1980       1     2092    1.00000000     
    1981       1     2093    1.00000000     
    1982       1     2094    1.00000000     
    1983       1     2095    1.00000000     
    1984       1     2096    1.00000000     
    1985       1     2097    1.00000000     
    1986       1     2098    1.00000000     
    1987       1     2099    1.00000000     
    1988       1     2100    1.00000000     
    1989       1     2101    1.00000000     
    1990       1     2102    1.00000000     
    1991       1     2103    1.00000000     
    1992       1     2104    1.00000000     
    1993       1     2105    1.00000000     
    1994       1     2106    1.00000000     
    1995       1     2107    1.00000000     
    1996       1     2108    1.00000000     
    1997       1     2109    1.00000000     
    1998       1     2110    1.00000000     
    1999       1     2111    1.00000000     
    2000       1     2112    1.00000000     
    2001       1     2113    1.00000000     
    2002       1     2114    1.00000000     
    2003       1     2115    1.00000000     
    2004       1     2116    1.00000000     
    2005       1     2117    1.00000000     
    2006       1     2118    1.00000000     
    2007       1     2119    1.00000000     
    2008       1     2120    1.00000000     
    2009       1     2121    1.00000000     
    2010       1     2122    1.00000000     
    2011       1     2123    1.00000000     
    2012       1     2124    1.00000000     
    2013       1     2125    1.00000000     
    2014       1     2126    1.00000000     
    2015       1     2127    1.00000000     
    2016       1     2128    1.00000000     
    2017       1     2129    1.00000000     
    2018       1     2130    1.00000000     
    2019       1     2131    1.00000000     
    2020       1     2132    1.00000000     
    2021       1     2133    1.00000000     
    2022       1     2134    1.00000000     
    2023       1     2135    1.00000000     
    2024       1     2136    1.00000000     
    2025       1     2137    1.00000000     
    2026       1     2138    1.00000000     
    2027       1     2139    1.00000000     
    2028       1     2140    1.00000000     
    2029       1     2141    1.00000000     
    2030       1     2142    1.00000000     
    2031       1     2143    1.00000000     
    2032       1     2144    1.00000000     
    2033       1     2147    1.00000000     
    2034       1     2148    1.00000000     
    2035       1     2149    1.00000000     
    2036       1     2150    1.00000000     
    2037       1     2151    1.00000000     
    2038       1     2152    1.00000000     
    2039       1     2153    1.00000000     
    2040       1     2154    1.00000000     
    2041       1     2155    1.00000000     
    2042       1     2156    1.00000000     
    2043       1     2157    1.00000000     
    2044       1     2158    1.00000000     
    2045       1     2159    1.00000000     
    2046       1     2160    1.00000000     
    2047       1     2161    1.00000000     
    2048       1     2162    1.00000000     
    2049       1     2163    1.00000000     
    2050       1     2164    1.00000000     
    2051       1     2165    1.00000000     
    2052       1     2166    1.00000000     
    2053       1     2167    1.00000000     
    2054       1     2168    1.00000000     
    2055       1     2169    1.00000000     
    2056       1     2170    1.00000000     
    2057       1     2171    1.00000000     
    2058       1     2172    1.00000000     
    2059       1     2173    1.00000000     
    2060       1     2174    1.00000000     
    2061       1     2175    1.00000000     
    2062       1     2176    1.00000000     
    2063       1     2177    1.00000000     
    2064       1     2178    1.00000000     
    2065       1     2179    1.00000000     
    2066       1     2180    1.00000000     
    2067       1     2181    1.00000000     
    2068       1     2182    1.00000000     
    2069       1     2183    1.00000000     
    2070       1     2184    1.00000000     
    2071       1     2185    1.00000000     
    2072       1     2186    1.00000000     
    2073       1     2187    1.00000000     
    2074       1     2188    1.00000000     
    2075       1     2189    1.00000000     
    2076       1     2190    1.00000000     
    2077       1     2191    1.00000000     
    2078       1     2192    1.00000000     
    2079       1     2193    1.00000000     
    2080       1     2194    1.00000000     
    2081       1     2195    1.00000000     
    2082       1     2196    1.00000000     
    2083       1     2197    1.00000000     
    2084       1     2198    1.00000000     
    2085       1     2199    1.00000000     
    2086       1     2200    1.00000000     
    2087       1     2201    1.00000000     
    2088       1     2202    1.00000000     
    2089       1     2203    1.00000000     
    2090       1     2204    1.00000000     
    2091       1     2205    1.00000000     
    2092       1     2206    1.00000000     
    2093       1     2207    1.00000000     
    2094       1     2208    1.00000000     
    2095       1     2209    1.00000000     
    2096       1     2210    1.00000000     
    2097       1     2211    1.00000000     
    2098       1     2212    1.00000000     
    2099       1     2213    1.00000000     
    2100       1     2216    1.00000000     
    2101       1     2217    1.00000000     
    2102       1     2218    1.00000000     
    2103       1     2219    1.00000000     
    2104       1     2220    1.00000000     
    2105       1     2221    1.00000000     
    2106       1     2222    1.00000000     
    2107       1     2223    1.00000000     
    2108       1     2224    1.00000000     
    2109       1     2225    1.00000000     
    2110       1     2226    1.00000000     
    2111       1     2227    1.00000000     
    2112       1     2228    1.00000000     
    2113       1     2229    1.00000000     
    2114       1     2230    1.00000000     
    2115       1     2231    1.00000000     
    2116       1     2232    1.00000000     
    2117       1     2233    1.00000000     
    2118       1     2234    1.00000000     
    2119       1     2235    1.00000000     
    2120       1     2236    1.00000000     
    2121       1     2237    1.00000000     
    2122       1     2238    1.00000000     
    2123       1     2239    1.00000000     
    2124       1     2240    1.00000000     
    2125       1     2241    1.00000000     
    2126       1     2242    1.00000000     
    2127       1     2243    1.00000000     
    2128       1     2244    1.00000000     
    2129       1     2245    1.00000000     
    2130       1     2246    1.00000000     
    2131       1     2247    1.00000000     
    2132       1     2248    1.00000000     
    2133       1     2249    1.00000000     
    2134       1     2250    1.00000000     
    2135       1     2251    1.00000000     
    2136       1     2252    1.00000000     
    2137       1     2253    1.00000000     
    2138       1     2254    1.00000000     
    2139       1     2255    1.00000000     
    2140       1     2256    1.00000000     
    2141       1     2257    1.00000000     
    2142       1     2258    1.00000000     
    2143       1     2259    1.00000000     
    2144       1     2260    1.00000000     
    2145       1     2261    1.00000000     
    2146       1     2262    1.00000000     
    2147       1     2263    1.00000000     
    2148       1     2264    1.00000000     
    2149       1     2265    1.00000000     
    2150       1     2266    1.00000000     
    2151       1     2267    1.00000000     
    2152       1     2268    1.00000000     
    2153       1     2269    1.00000000     
    2154       1     2270    1.00000000     
    2155       1     2271    1.00000000     
    2156       1     2272    1.00000000     
    2157       1     2273    1.00000000     
    2158       1     2274    1.00000000     
    2159       1     2275    1.00000000     
    2160       1     2276    1.00000000     
    2161       1     2277    1.00000000     
    2162       1     2278    1.00000000     
    2163       1     2279    1.00000000     
    2164       1     2280    1.00000000     
    2165       1     2281    1.00000000     
    2166       1     2282    1.00000000     
    2167       1     2283    1.00000000     
    2168       1     2284    1.00000000     
    2169       1     2285    1.00000000     
    2170       1     2286    1.00000000     
    2171       1     2287    1.00000000     
    2172       1     2288    1.00000000     
    2173       1     2289    1.00000000     
    2174       1     2290    1.00000000     
    2175       1     2291    1.00000000     
    2176       1     2292    1.00000000     
    2177       1     2293    1.00000000     
    2178       1     2294    1.00000000     
    2179       1     2295    1.00000000     
    2180       1     2296    1.00000000     
    2181       1     2297    1.00000000     
    2182       1     2298    1.00000000     
    2183       1     2299    1.00000000     
    2184       1     2300    1.00000000     
    2185       1     2301    1.00000000     
    2186       1     2302    1.00000000     
    2187       1     2303    1.00000000     
    2188       1     2304    1.00000000     
    2189       1     2305    1.00000000     
    2190       1     2306    1.00000000     
    2191       1     2307    1.00000000     
    2192       1     2308    1.00000000     
    2193       1     2311    1.00000000     
    2194       1     2312    1.00000000     
    2195       1     2313    1.00000000     
    2196       1     2314    1.00000000     
    2197       1     2315    1.00000000     
    2198       1     2316    1.00000000     
    2199       1     2317    1.00000000     
    2200       1     2318    1.00000000     
    2201       1     2319    1.00000000     
    2202       1     2320    1.00000000     
    2203       1     2321    1.00000000     
    2204       1     2322    1.00000000     
    2205       1     2323    1.00000000     
    2206       1     2324    1.00000000     
    2207       1     2325    1.00000000     
    2208       1     2326    1.00000000     
    2209       1     2327    1.00000000     
    2210       1     2328    1.00000000     
    2211       1     2329    1.00000000     
    2212       1     2330    1.00000000     
    2213       1     2331    1.00000000     
    2214       1     2332    1.00000000     
    2215       1     2333    1.00000000     
    2216       1     2334    1.00000000     
    2217       1     2335    1.00000000     
    2218       1     2336    1.00000000     
    2219       1     2337    1.00000000     
    2220       1     2338    1.00000000     
    2221       1     2339    1.00000000     
    2222       1     2340    1.00000000     
    2223       1     2341    1.00000000     
    2224       1     2342    1.00000000     
    2225       1     2343    1.00000000     
    2226       1     2344    1.00000000     
    2227       1     2345    1.00000000     
    2228       1     2346    1.00000000     
    2229       1     2347    1.00000000     
    2230       1     2348    1.00000000     
    2231       1     2349    1.00000000     
    2232       1     2350    1.00000000     
    2233       1     2351    1.00000000     
    2234       1     2352    1.00000000     
    2235       1     2353    1.00000000     
    2236       1     2354    1.00000000     
    2237       1     2355    1.00000000     
    2238       1     2356    1.00000000     
    2239       1     2357    1.00000000     
    2240       1     2358    1.00000000     
    2241       1     2359    1.00000000     
    2242       1     2360    1.00000000     
    2243       1     2361    1.00000000     
    2244       1     2362    1.00000000     
    2245       1     2363    1.00000000     
    2246       1     2364    1.00000000     
    2247       1     2365    1.00000000     
    2248       1     2366    1.00000000     
    2249       1     2367    1.00000000     
    2250       1     2368    1.00000000     
    2251       1     2369    1.00000000     
    2252       1     2370    1.00000000     
    2253       1     2371    1.00000000     
    2254       1     2372    1.00000000     
    2255       1     2373    1.00000000     
    2256       1     2374    1.00000000     
    2257       1     2375    1.00000000     
    2258       1     2376    1.00000000     
    2259       1     2377    1.00000000     
    2260       1     2378    1.00000000     
    2261       1     2379    1.00000000     
    2262       1     2380    1.00000000     
    2263       1     2381    1.00000000     
    2264       1     2382    1.00000000     
    2265       1     2383    1.00000000     
    2266       1     2384    1.00000000     
    2267       1     2385    1.00000000     
    2268       1     2386    1.00000000     
    2269       1     2387    1.00000000     
    2270       1     2388    1.00000000     
    2271       1     2389    1.00000000     
    2272       1     2390    1.00000000     
    2273       1     2391    1.00000000     
    2274       1     2392    1.00000000     
    2275       1     2393    1.00000000     
    2276       1     2394    1.00000000     
    2277       1     2395    1.00000000     
    2278       1     2396    1.00000000     
    2279       1     2397    1.00000000     
    2280       1     2398    1.00000000     
    2281       1     2399    1.00000000     
    2282       1     2400    1.00000000     
    2283       1     2401    1.00000000     
    2284       1     2402    1.00000000     
    2285       1     2405    1.00000000     
    2286       1     2406    1.00000000     
    2287       1     2407    1.00000000     
    2288       1     2408    1.00000000     
    2289       1     2409    1.00000000     
    2290       1     2410    1.00000000     
    2291       1     2411    1.00000000     
    2292       1     2412    1.00000000     
    2293       1     2413    1.00000000     
    2294       1     2414    1.00000000     
    2295       1     2415    1.00000000     
    2296       1     2416    1.00000000     
    2297       1     2417    1.00000000     
    2298       1     2418    1.00000000     
    2299       1     2419    1.00000000     
    2300       1     2420    1.00000000     
    2301       1     2421    1.00000000     
    2302       1     2422    1.00000000     
    2303       1     2423    1.00000000     
    2304       1     2424    1.00000000     
    2305       1     2425    1.00000000     
    2306       1     2426    1.00000000     
    2307       1     2427    1.00000000     
    2308       1     2428    1.00000000     
    2309       1     2429    1.00000000     
    2310       1     2430    1.00000000     
    2311       1     2431    1.00000000     
    2312       1     2432    1.00000000     
    2313       1     2433    1.00000000     
    2314       1     2434    1.00000000     
    2315       1     2435    1.00000000     
    2316       1     2436    1.00000000     
    2317       1     2437    1.00000000     
    2318       1     2438    1.00000000     
    2319       1     2439    1.00000000     
    2320       1     2440    1.00000000     
    2321       1     2441    1.00000000     
    2322       1     2442    1.00000000     
    2323       1     2443    1.00000000     
    2324       1     2444    1.00000000     
    2325       1     2445    1.00000000     
    2326       1     2446    1.00000000     
    2327       1     2447    1.00000000     
    2328       1     2448    1.00000000     
    2329       1     2449    1.00000000     
    2330       1     2450    1.00000000     
    2331       1     2451    1.00000000     
    2332       1     2452    1.00000000     
    2333       1     2453    1.00000000     
    2334       1     2454    1.00000000     
    2335       1     2455    1.00000000     
    2336       1     2456    1.00000000     
    2337       1     2457    1.00000000     
    2338       1     2458    1.00000000     
    2339       1     2459    1.00000000     
    2340       1     2460    1.00000000     
    2341       1     2461    1.00000000     
    2342       1     2462    1.00000000     
    2343       1     2463    1.00000000     
    2344       1     2464    1.00000000     
    2345       1     2465    1.00000000     
    2346       1     2466    1.00000000     
    2347       1     2467    1.00000000     
    2348       1     2468    1.00000000     
    2349       1     2469    1.00000000     
    2350       1     2470    1.00000000     
    2351       1     2471    1.00000000     
    2352       1     2472    1.00000000     
    2353       1     2473    1.00000000     
    2354       1     2474    1.00000000     
    2355       1     2475    1.00000000     
    2356       1     2476    1.00000000     
    2357       1     2477    1.00000000     
    2358       1     2478    1.00000000     
    2359       1     2479    1.00000000     
    2360       1     2480    1.00000000     
    2361       1     2481    1.00000000     
    2362       1     2482    1.00000000     
    2363       1     2483    1.00000000     
    2364       1     2484    1.00000000     
    2365       1     2485    1.00000000     
    2366       1     2486    1.00000000     
    2367       1     2489    1.00000000     
    2368       1     2490    1.00000000     
    2369       1     2491    1.00000000     
    2370       1     2492    1.00000000     
    2371       1     2493    1.00000000     
    2372       1     2494    1.00000000     
    2373       1     2495    1.00000000     
    2374       1     2496    1.00000000     
    2375       1     2497    1.00000000     
    2376       1     2498    1.00000000     
    2377       1     2499    1.00000000     
    2378       1     2500    1.00000000     
    2379       1     2501    1.00000000     
    2380       1     2502    1.00000000     
    2381       1     2503    1.00000000     
    2382       1     2504    1.00000000     
    2383       1     2505    1.00000000     
    2384       1     2506    1.00000000     
    2385       1     2507    1.00000000     
    2386       1     2508    1.00000000     
    2387       1     2509    1.00000000     
    2388       1     2510    1.00000000     
    2389       1     2511    1.00000000     
    2390       1     2512    1.00000000     
    2391       1     2513    1.00000000     
    2392       1     2514    1.00000000     
    2393       1     2515    1.00000000     
    2394       1     2516    1.00000000     
    2395       1     2517    1.00000000     
    2396       1     2518    1.00000000     
    2397       1     2519    1.00000000     
    2398       1     2520    1.00000000     
    2399       1     2521    1.00000000     
    2400       1     2522    1.00000000     
    2401       1     2523    1.00000000     
    2402       1     2524    1.00000000     
    2403       1     2525    1.00000000     
    2404       1     2526    1.00000000     
    2405       1     2527    1.00000000     
    2406       1     2528    1.00000000     
    2407       1     2529    1.00000000     
    2408       1     2530    1.00000000     
    2409       1     2531    1.00000000     
    2410       1     2532    1.00000000     
    2411       1     2533    1.00000000     
    2412       1     2534    1.00000000     
    2413       1     2535    1.00000000     
    2414       1     2536    1.00000000     
    2415       1     2537    1.00000000     
    2416       1     2538    1.00000000     
    2417       1     2539    1.00000000     
    2418       1     2540    1.00000000     
    2419       1     2541    1.00000000     
    2420       1     2542    1.00000000     
    2421       1     2543    1.00000000     
    2422       1     2544    1.00000000     
    2423       1     2545    1.00000000     
    2424       1     2546    1.00000000     
    2425       1     2547    1.00000000     
    2426       1     2548    1.00000000     
    2427       1     2549    1.00000000     
    2428       1     2550    1.00000000     
    2429       1     2551    1.00000000     
    2430       1     2552    1.00000000     
    2431       1     2553    1.00000000     
    2432       1     2554    1.00000000     
    2433       1     2555    1.00000000     
    2434       1     2556    1.00000000     
    2435       1     2557    1.00000000     
    2436       1     2558    1.00000000     
    2437       1     2559    1.00000000     
    2438       1     2560    1.00000000     
    2439       1     2561    1.00000000     
    2440       1     2562    1.00000000     
    2441       1     2563    1.00000000     
    2442       1     2567    1.00000000     
    2443       1     2568    1.00000000     
    2444       1     2569    1.00000000     
    2445       1     2570    1.00000000     
    2446       1     2571    1.00000000     
    2447       1     2572    1.00000000     
    2448       1     2573    1.00000000     
    2449       1     2574    1.00000000     
    2450       1     2575    1.00000000     
    2451       1     2576    1.00000000     
    2452       1     2577    1.00000000     
    2453       1     2578    1.00000000     
    2454       1     2579    1.00000000     
    2455       1     2580    1.00000000     
    2456       1     2581    1.00000000     
    2457       1     2582    1.00000000     
    2458       1     2583    1.00000000     
    2459       1     2584    1.00000000     
    2460       1     2585    1.00000000     
    2461       1     2586    1.00000000     
    2462       1     2587    1.00000000     
    2463       1     2588    1.00000000     
    2464       1     2589    1.00000000     
    2465       1     2590    1.00000000     
    2466       1     2591    1.00000000     
    2467       1     2592    1.00000000     
    2468       1     2593    1.00000000     
    2469       1     2594    1.00000000     
    2470       1     2595    1.00000000     
    2471       1     2596    1.00000000     
    2472       1     2597    1.00000000     
    2473       1     2598    1.00000000     
    2474       1     2599    1.00000000     
    2475       1     2600    1.00000000     
    2476       1     2601    1.00000000     
    2477       1     2602    1.00000000     
    2478       1     2603    1.00000000     
    2479       1     2604    1.00000000     
    2480       1     2605    1.00000000     
    2481       1     2606    1.00000000     
    2482       1     2607    1.00000000     
    2483       1     2608    1.00000000     
    2484       1     2609    1.00000000     
    2485       1     2610    1.00000000     
    2486       1     2611    1.00000000     
    2487       1     2612    1.00000000     
    2488       1     2613    1.00000000     
    2489       1     2614    1.00000000     
    2490       1     2615    1.00000000     
    2491       1     2616    1.00000000     
    2492       1     2617    1.00000000     
    2493       1     2618    1.00000000     
    2494       1     2619    1.00000000     
    2495       1     2620    1.00000000     
    2496       1     2621    1.00000000     
    2497       1     2622    1.00000000     
    2498       1     2623    1.00000000     
    2499       1     2624    1.00000000     
    2500       1     2625    1.00000000     
    2501       1     2626    1.00000000     
    2502       1     2627    1.00000000     
    2503       1     2628    1.00000000     
    2504       1     2629    1.00000000     
    2505       1     2630    1.00000000     
    2506       1     2631    1.00000000     
    2507       1     2632    1.00000000     
    2508       1     2633    1.00000000     
    2509       1     2634    1.00000000     
    2510       1     2637    1.00000000     
    2511       1     2638    1.00000000     
    2512       1     2639    1.00000000     
    2513       1     2640    1.00000000     
    2514       1     2641    1.00000000     
    2515       1     2642    1.00000000     
    2516       1     2643    1.00000000     
    2517       1     2644    1.00000000     
    2518       1     2645    1.00000000     
    2519       1     2646    1.00000000     
    2520       1     2647    1.00000000     
    2521       1     2648    1.00000000     
    2522       1     2649    1.00000000     
    2523       1     2650    1.00000000     
    2524       1     2651    1.00000000     
    2525       1     2652    1.00000000     
    2526       1     2653    1.00000000     
    2527       1     2654    1.00000000     
    2528       1     2655    1.00000000     
    2529       1     2656    1.00000000     
    2530       1     2657    1.00000000     
    2531       1     2658    1.00000000     
    2532       1     2659    1.00000000     
    2533       1     2660    1.00000000     
    2534       1     2661    1.00000000     
    2535       1     2662    1.00000000     
    2536       1     2663    1.00000000     
    2537       1     2664    1.00000000     
    2538       1     2665    1.00000000     
    2539       1     2666    1.00000000     
    2540       1     2667    1.00000000     
    2541       1     2668    1.00000000     
    2542       1     2669    1.00000000     
    2543       1     2670    1.00000000     
    2544       1     2671    1.00000000     
    2545       1     2672    1.00000000     
    2546       1     2673    1.00000000     
    2547       1     2674    1.00000000     
    2548       1     2675    1.00000000     
    2549       1     2676    1.00000000     
    2550       1     2677    1.00000000     
    2551       1     2678    1.00000000     
    2552       1     2679    1.00000000     
    2553       1     2680    1.00000000     
    2554       1     2681    1.00000000     
    2555       1     2682    1.00000000     
    2556       1     2683    1.00000000     
    2557       1     2684    1.00000000     
    2558       1     2685    1.00000000     
    2559       1     2686    1.00000000     
    2560       1     2687    1.00000000     
    2561       1     2688    1.00000000     
    2562       1     2689    1.00000000     
    2563       1     2690    1.00000000     
    2564       1     2691    1.00000000     
    2565       1     2692    1.00000000     
    2566       1     2693    1.00000000     
    2567       1     2694    1.00000000     
    2568       1     2695    1.00000000     
    2569       1     2696    1.00000000     
    2570       1     2697    1.00000000     
    2571       1     2698    1.00000000     
    2572       1     2699    1.00000000     
    2573       1     2700    1.00000000     
    2574       1     2701    1.00000000     
    2575       1     2702    1.00000000     
    2576       1     2703    1.00000000     
    2577       1     2706    1.00000000     
    2578       1     2707    1.00000000     
    2579       1     2708    1.00000000     
    2580       1     2709    1.00000000     
    2581       1     2710    1.00000000     
    2582       1     2711    1.00000000     
    2583       1     2712    1.00000000     
    2584       1     2713    1.00000000     
    2585       1     2714    1.00000000     
    2586       1     2715    1.00000000     
    2587       1     2716    1.00000000     
    2588       1     2717    1.00000000     
    2589       1     2718    1.00000000     
    2590       1     2719    1.00000000     
    2591       1     2720    1.00000000     
    2592       1     2721    1.00000000     
    2593       1     2722    1.00000000     
    2594       1     2723    1.00000000     
    2595       1     2724    1.00000000     
    2596       1     2725    1.00000000     
    2597       1     2726    1.00000000     
    2598       1     2727    1.00000000     
    2599       1     2728    1.00000000     
    2600       1     2729    1.00000000     
    2601       1     2730    1.00000000     
    2602       1     2731    1.00000000     
    2603       1     2732    1.00000000     
    2604       1     2733    1.00000000     
    2605       1     2734    1.00000000     
    2606       1     2735    1.00000000     
    2607       1     2736    1.00000000     
    2608       1     2737    1.00000000     
    2609       1     2738    1.00000000     
    2610       1     2739    1.00000000     
    2611       1     2740    1.00000000     
    2612       1     2741    1.00000000     
    2613       1     2742    1.00000000     
    2614       1     2743    1.00000000     
    2615       1     2744    1.00000000     
    2616       1     2745    1.00000000     
    2617       1     2746    1.00000000     
    2618       1     2747    1.00000000     
    2619       1     2748    1.00000000     
    2620       1     2749    1.00000000     
    2621       1     2750    1.00000000     
    2622       1     2751    1.00000000     
    2623       1     2752    1.00000000     
    2624       1     2753    1.00000000     
    2625       1     2754    1.00000000     
    2626       1     2755    1.00000000     
    2627       1     2756    1.00000000     
    2628       1     2757    1.00000000     
    2629       1     2758    1.00000000     
    2630       1     2759    1.00000000     
    2631       1     2760    1.00000000     
    2632       1     2761    1.00000000     
    2633       1     2762    1.00000000     
    2634       1     2763    1.00000000     
    2635       1     2764    1.00000000     
    2636       1     2765    1.00000000     
    2637       1     2766    1.00000000     
    2638       1     2767    1.00000000     
    2639       1     2768    1.00000000     
    2640       1     2769    1.00000000     
    2641       1     2770    1.00000000     
    2642       1     2771    1.00000000     
    2643       1     2772    1.00000000     
    2644       1     2773    1.00000000     
    2645       1     2774    1.00000000     
    2646       1     2775    1.00000000     
    2647       1     2776    1.00000000     
    2648       1     2777    1.00000000     
    2649       1     2778    1.00000000     
    2650       1     2779    1.00000000     
    2651       1     2780    1.00000000     
    2652       1     2781    1.00000000     
    2653       1     2782    1.00000000     
    2654       1     2783    1.00000000     
    2655       1     2786    1.00000000     
    2656       1     2787    1.00000000     
    2657       1     2788    1.00000000     
    2658       1     2789    1.00000000     
    2659       1     2790    1.00000000     
    2660       1     2791    1.00000000     
    2661       1     2792    1.00000000     
    2662       1     2793    1.00000000     
    2663       1     2794    1.00000000     
    2664       1     2795    1.00000000     
    2665       1     2796    1.00000000     
    2666       1     2797    1.00000000     
    2667       1     2798    1.00000000     
    2668       1     2799    1.00000000     
    2669       1     2800    1.00000000     
    2670       1     2801    1.00000000     
    2671       1     2802    1.00000000     
    2672       1     2803    1.00000000     
    2673       1     2804    1.00000000     
    2674       1     2805    1.00000000     
    2675       1     2806    1.00000000     
    2676       1     2807    1.00000000     
    2677       1     2808    1.00000000     
    2678       1     2809    1.00000000     
    2679       1     2810    1.00000000     
    2680       1     2811    1.00000000     
    2681       1     2812    1.00000000     
    2682       1     2813    1.00000000     
    2683       1     2814    1.00000000     
    2684       1     2815    1.00000000     
    2685       1     2816    1.00000000     
    2686       1     2817    1.00000000     
    2687       1     2818    1.00000000     
    2688       1     2819    1.00000000     
    2689       1     2820    1.00000000     
    2690       1     2821    1.00000000     
    2691       1     2822    1.00000000     
    2692       1     2823    1.00000000     
    2693       1     2824    1.00000000     
    2694       1     2825    1.00000000     
    2695       1     2826    1.00000000     
    2696       1     2827    1.00000000     
    2697       1     2828    1.00000000     
    2698       1     2829    1.00000000     
    2699       1     2830    1.00000000     
    2700       1     2831    1.00000000     
    2701       1     2832    1.00000000     
    2702       1     2833    1.00000000     
    2703       1     2834    1.00000000     
    2704       1     2835    1.00000000     
    2705       1     2836    1.00000000     
    2706       1     2837    1.00000000     
    2707       1     2838    1.00000000     
    2708       1     2839    1.00000000     
    2709       1     2840    1.00000000     
    2710       1     2841    1.00000000     
    2711       1     2842    1.00000000     
    2712       1     2843    1.00000000     
    2713       1     2844    1.00000000     
    2714       1     2845    1.00000000     
    2715       1     2846    1.00000000     
    2716       1     2847    1.00000000     
    2717       1     2848    1.00000000     
    2718       1     2849    1.00000000     
    2719       1     2850    1.00000000     
    2720       1     2851    1.00000000     
    2721       1     2852    1.00000000     
    2722       1     2853    1.00000000     
    2723       1     2854    1.00000000     
    2724       1     2857    1.00000000     
    2725       1     2858    1.00000000     
    2726       1     2859    1.00000000     
    2727       1     2860    1.00000000     
    2728       1     2861    1.00000000     
    2729       1     2862    1.00000000     
    2730       1     2863    1.00000000     
    2731       1     2864    1.00000000     
    2732       1     2865    1.00000000     
    2733       1     2866    1.00000000     
    2734       1     2867    1.00000000     
    2735       1     2868    1.00000000     
    2736       1     2869    1.00000000     
    2737       1     2870    1.00000000     
    2738       1     2871    1.00000000     
    2739       1     2872    1.00000000     
    2740       1     2873    1.00000000     
    2741       1     2874    1.00000000     
    2742       1     2875    1.00000000     
    2743       1     2876    1.00000000     
    2744       1     2877    1.00000000     
    2745       1     2878    1.00000000     
    2746       1     2879    1.00000000     
    2747       1     2880    1.00000000     
    2748       1     2881    1.00000000     
    2749       1     2882    1.00000000     
    2750       1     2883    1.00000000     
    2751       1     2884    1.00000000     
    2752       1     2885    1.00000000     
    2753       1     2886    1.00000000     
    2754       1     2887    1.00000000     
    2755       1     2888    1.00000000     
    2756       1     2889    1.00000000     
    2757       1     2890    1.00000000     
    2758       1     2891    1.00000000     
    2759       1     2892    1.00000000     
    2760       1     2893    1.00000000     
    2761       1     2894    1.00000000     
    2762       1     2895    1.00000000     
    2763       1     2896    1.00000000     
    2764       1     2897    1.00000000     
    2765       1     2898    1.00000000     
    2766       1     2899    1.00000000     
    2767       1     2900    1.00000000     
    2768       1     2901    1.00000000     
    2769       1     2902    1.00000000     
    2770       1     2903    1.00000000     
    2771       1     2904    1.00000000     
    2772       1     2905    1.00000000     
    2773       1     2906    1.00000000     
    2774       1     2907    1.00000000     
    2775       1     2908    1.00000000     
    2776       1     2909    1.00000000     
    2777       1     2910    1.00000000     
    2778       1     2911    1.00000000     
    2779       1     2912    1.00000000     
    2780       1     2913    1.00000000     
    2781       1     2914    1.00000000     
    2782       1     2915    1.00000000     
    2783       1     2916    1.00000000     
    2784       1     2917    1.00000000     
    2785       1     2918    1.00000000     
    2786       1     2919    1.00000000     
    2787       1     2922    1.00000000     
    2788       1     2923    1.00000000     
    2789       1     2924    1.00000000     
    2790       1     2925    1.00000000     
    2791       1     2926    1.00000000     
    2792       1     2927    1.00000000     
    2793       1     2928    1.00000000     
    2794       1     2929    1.00000000     
    2795       1     2930    1.00000000     
    2796       1     2931    1.00000000     
    2797       1     2932    1.00000000     
    2798       1     2933    1.00000000     
    2799       1     2934    1.00000000     
    2800       1     2935    1.00000000     
    2801       1     2936    1.00000000     
    2802       1     2937    1.00000000     
    2803       1     2938    1.00000000     
    2804       1     2939    1.00000000     
    2805       1     2940    1.00000000     
    2806       1     2941    1.00000000     
    2807       1     2942    1.00000000     
    2808       1     2943    1.00000000     
    2809       1     2944    1.00000000     
    2810       1     2945    1.00000000     
    2811       1     2946    1.00000000     
    2812       1     2947    1.00000000     
    2813       1     2948    1.00000000     
    2814       1     2949    1.00000000     
    2815       1     2950    1.00000000     
    2816       1     2951    1.00000000     
    2817       1     2952    1.00000000     
    2818       1     2953    1.00000000     
    2819       1     2954    1.00000000     
    2820       1     2955    1.00000000     
    2821       1     2956    1.00000000     
    2822       1     2957    1.00000000     
    2823       1     2958    1.00000000     
    2824       1     2959    1.00000000     
    2825       1     2960    1.00000000     
    2826       1     2961    1.00000000     
    2827       1     2962    1.00000000     
    2828       1     2963    1.00000000     
    2829       1     2964    1.00000000     
    2830       1     2965    1.00000000     
    2831       1     2966    1.00000000     
    2832       1     2967    1.00000000     
    2833       1     2968    1.00000000     
    2834       1     2969    1.00000000     
    2835       1     2972    1.00000000     
    2836       1     2973    1.00000000     
    2837       1     2974    1.00000000     
    2838       1     2975    1.00000000     
    2839       1     2976    1.00000000     
    2840       1     2977    1.00000000     
    2841       1     2978    1.00000000     
    2842       1     2979    1.00000000     
    2843       1     2980    1.00000000     
    2844       1     2981    1.00000000     
    2845       1     2982    1.00000000     
    2846       1     2983    1.00000000     
    2847       1     2984    1.00000000     
    2848       1     2985    1.00000000     
    2849       1     2986    1.00000000     
    2850       1     2987    1.00000000     
    2851       1     2988    1.00000000     
    2852       1     2989    1.00000000     
    2853       1     2990    1.00000000     
    2854       1     2991    1.00000000     
    2855       1     2992    1.00000000     
    2856       1     2993    1.00000000     
    2857       1     2994    1.00000000     
    2858       1     2995    1.00000000     
    2859       1     2996    1.00000000     
    2860       1     2997    1.00000000     
    2861       1     2998    1.00000000     
    2862       1     2999    1.00000000     
    2863       1     3000    1.00000000     
    2864       1     3001    1.00000000     
    2865       1     3002    1.00000000     
    2866       1     3003    1.00000000     
    2867       1     3004    1.00000000     
    2868       1     3005    1.00000000     
    2869       1     3006    1.00000000     
    2870       1     3007    1.00000000     
    2871       1     3008    1.00000000     
    2872       1     3009    1.00000000     
    2873       1     3010    1.00000000     
    2874       1     3011    1.00000000     
    2875       1     3012    1.00000000     
    2876       1     3013    1.00000000     
    2877       1     3014    1.00000000     
    2878       1     3019    1.00000000     
    2879       1     3020    1.00000000     
    2880       1     3021    1.00000000     
    2881       1     3022    1.00000000     
    2882       1     3023    1.00000000     
    2883       1     3024    1.00000000     
    2884       1     3025    1.00000000     
    2885       1     3026    1.00000000     
    2886       1     3027    1.00000000     
    2887       1     3028    1.00000000     
    2888       1     3029    1.00000000     
    2889       1     3030    1.00000000     
    2890       1     3031    1.00000000     
    2891       1     3032    1.00000000     
    2892       1     3033    1.00000000     
    2893       1     3034    1.00000000     
    2894       1     3035    1.00000000     
    2895       1     3036    1.00000000     
    2896       1     3037    1.00000000     
    2897       1     3038    1.00000000     
    2898       1     3039    1.00000000     
    2899       1     3040    1.00000000     
    2900       1     3041    1.00000000     
    2901       1     3042    1.00000000     
    2902       1     3043    1.00000000     
    2903       1     3044    1.00000000     
    2904       1     3045    1.00000000     
    2905       1     3046    1.00000000     
    2906       1     3047    1.00000000     
    2907       1     3048    1.00000000     
    2908       1     3049    1.00000000     
    2909       1     3050    1.00000000     
    2910       1     3051    1.00000000     
    2911       1     3052    1.00000000     
    2912       1     3053    1.00000000     
    2913       1     3054    1.00000000     
    2914       1     3062    1.00000000     
    2915       1     3063    1.00000000     
    2916       1     3064    1.00000000     
    2917       1     3065    1.00000000     
    2918       1     3066    1.00000000     
    2919       1     3067    1.00000000     
    2920       1     3068    1.00000000     
    2921       1     3069    1.00000000     
    2922       1     3070    1.00000000     
    2923       1     3071    1.00000000     
    2924       1     3072    1.00000000     
    2925       1     3073    1.00000000     
    2926       1     3074    1.00000000     
    2927       1     3075    1.00000000     
    2928       1     3076    1.00000000     
    2929       1     3077    1.00000000     
    2930       1     3098    1.00000000     
    2931       1     3099    1.00000000     
    2932       1     3100    1.00000000     
    2933       1     3101    1.00000000     
    2934       1     3102    1.00000000     
    2935       1     3103    1.00000000     
    2936       1     3104    1.00000000     
    2937       1     3105    1.00000000     
    2938       1     3106    1.00000000     
    2939       1     3107    1.00000000     
    2940       1     3108    1.00000000     
    2941       1     3109    1.00000000     
    2942       1     3110    1.00000000     
    2943       1     3111    1.00000000     
    2944       1     3113    1.00000000     
    2945       1     3114    1.00000000     
    2946       1     3115    1.00000000     
    2947       1     3116    1.00000000     
    2948       1     3117    1.00000000     
    2949       1     3118    1.00000000     
    2950       1     3119    1.00000000     
    2951       1     3120    1.00000000     
    2952       1     3121    1.00000000     
    2953       1     3122    1.00000000     
    2954       1     3123    1.00000000     
    2955       1     3124    1.00000000     
 -------------------------------------------



 REUSING SFRS FROM LAST STRESS PERIOD
 UBDSV1 SAVING           STO-SS ON UNIT   1019 AT TIME STEP      1, STRESS PERIOD      2
 UBDSV1 SAVING           STO-SY ON UNIT   1019 AT TIME STEP      1, STRESS PERIOD      2
 UBDSV1 SAVING     FLOW-JA-FACE ON UNIT   1019 AT TIME STEP      1, STRESS PERIOD      2
 UBDSV06 SAVING              GHB IN MODEL EXPERIMENTAL     PACKAGE EXPERIMENTAL    CONNECTED TO MODEL EXPERIMENTAL     PACKAGE GHB              ON UNIT   1019 AT TIME STEP      1, STRESS PERIOD      2
 UBDSV06 SAVING              RCH IN MODEL EXPERIMENTAL     PACKAGE EXPERIMENTAL    CONNECTED TO MODEL EXPERIMENTAL     PACKAGE RCH              ON UNIT   1019 AT TIME STEP      1, STRESS PERIOD      2
 UBDSV06 SAVING              SFR IN MODEL EXPERIMENTAL     PACKAGE EXPERIMENTAL    CONNECTED TO MODEL EXPERIMENTAL     PACKAGE SFR              ON UNIT   1019 AT TIME STEP      1, STRESS PERIOD      2
 UBDSV06 SAVING     FLOW-JA-FACE IN MODEL EXPERIMENTAL     PACKAGE SFR             CONNECTED TO MODEL EXPERIMENTAL     PACKAGE SFR              ON UNIT   1015 AT TIME STEP      1, STRESS PERIOD      2
 UBDSV06 SAVING              GWF IN MODEL EXPERIMENTAL     PACKAGE SFR             CONNECTED TO MODEL EXPERIMENTAL     PACKAGE EXPERIMENTAL     ON UNIT   1015 AT TIME STEP      1, STRESS PERIOD      2
 UBDSV06 SAVING         RAINFALL IN MODEL EXPERIMENTAL     PACKAGE SFR             CONNECTED TO MODEL EXPERIMENTAL     PACKAGE SFR              ON UNIT   1015 AT TIME STEP      1, STRESS PERIOD      2
 UBDSV06 SAVING      EVAPORATION IN MODEL EXPERIMENTAL     PACKAGE SFR             CONNECTED TO MODEL EXPERIMENTAL     PACKAGE SFR              ON UNIT   1015 AT TIME STEP      1, STRESS PERIOD      2
 UBDSV06 SAVING           RUNOFF IN MODEL EXPERIMENTAL     PACKAGE SFR             CONNECTED TO MODEL EXPERIMENTAL     PACKAGE SFR              ON UNIT   1015 AT TIME STEP      1, STRESS PERIOD      2
 UBDSV06 SAVING       EXT-INFLOW IN MODEL EXPERIMENTAL     PACKAGE SFR             CONNECTED TO MODEL EXPERIMENTAL     PACKAGE SFR              ON UNIT   1015 AT TIME STEP      1, STRESS PERIOD      2
 UBDSV06 SAVING      EXT-OUTFLOW IN MODEL EXPERIMENTAL     PACKAGE SFR             CONNECTED TO MODEL EXPERIMENTAL     PACKAGE SFR              ON UNIT   1015 AT TIME STEP      1, STRESS PERIOD      2
 UBDSV06 SAVING          STORAGE IN MODEL EXPERIMENTAL     PACKAGE SFR             CONNECTED TO MODEL EXPERIMENTAL     PACKAGE SFR              ON UNIT   1015 AT TIME STEP      1, STRESS PERIOD      2
1
  HEAD IN LAYER   1 AT END OF TIME STEP   1 IN STRESS PERIOD    2
  ---------------------------------------------------------------------------

                1               2               3               4               5               6               7               8               9              10
               11              12              13              14              15              16              17              18              19              20
               21              22              23              24              25              26              27              28              29              30
               31              32              33              34              35              36              37              38              39              40
               41              42              43              44              45              46              47              48              49              50
               51              52              53              54              55              56              57              58              59              60
               61              62              63              64              65              66              67              68              69              70
               71              72              73              74              75              76              77              78              79              80
               81              82              83              84              85              86              87              88              89              90
               91              92              93              94              95              96              97              98              99             100
              101             102             103             104             105             106             107             108             109             110
              111             112             113             114             115             116             117             118             119             120
              121             122             123             124             125             126             127             128             129             130
              131             132             133             134             135             136             137             138             139             140
              141             142             143             144             145             146             147             148             149             150
              151             152             153             154             155             156             157             158             159             160
              161             162             163             164             165             166             167             168             169             170
              171             172             173             174             175             176             177             178             179             180
              181             182             183             184             185             186             187             188             189             190
              191             192             193             194             195             196             197             198             199             200
              201             202             203             204             205             206             207             208             209             210
              211             212             213             214             215             216             217             218             219             220
              221             222             223             224             225             226             227             228             229             230
              231             232             233             234             235             236             237             238             239             240
              241             242             243             244             245             246             247             248             249             250
              251             252             253             254             255             256             257             258             259             260
              261             262             263             264             265             266             267             268             269             270
              271             272             273             274             275             276             277             278             279             280
              281             282             283             284             285             286             287             288             289             290
              291             292             293             294             295             296             297             298             299             300
              301             302             303             304             305             306             307             308             309             310
              311             312             313             314             315             316             317             318             319             320
              321             322             323             324             325             326             327             328             329             330
              331             332             333             334             335             336             337             338             339             340
              341             342             343             344             345             346             347             348             349             350
              351             352             353             354             355             356             357             358             359             360
              361             362             363             364             365             366             367             368             369             370
              371             372             373             374             375             376             377             378             379             380
              381             382             383             384             385             386             387             388             389             390
              391             392             393             394             395             396             397             398             399             400
              401             402             403             404             405             406             407             408             409             410
              411             412             413             414             415             416             417             418             419             420
              421             422             423             424             425             426             427             428             429             430
              431             432             433             434             435             436             437             438             439             440
              441             442             443             444             445             446             447             448             449             450
              451             452             453             454             455             456             457             458             459             460
              461             462             463             464             465             466             467             468             469             470
              471             472             473             474             475             476             477             478             479             480
              481             482             483             484             485             486             487             488             489             490
              491             492             493             494             495             496             497             498             499             500
              501             502             503             504             505             506             507             508             509             510
              511             512             513             514             515             516             517             518             519             520
              521             522             523             524             525             526             527             528             529             530
              531             532             533             534             535             536             537             538             539             540
              541             542             543             544             545             546             547             548             549             550
              551             552             553             554             555             556             557             558             559             560
              561             562             563             564             565             566             567             568             569             570
              571             572             573             574             575             576             577             578             579             580
              581             582             583             584             585             586             587             588             589             590
              591             592             593             594             595             596             597             598             599             600
              601             602             603             604             605             606             607             608             609             610
              611             612             613             614             615             616             617             618             619             620
              621             622             623             624             625             626             627             628             629             630
              631             632             633             634             635             636             637             638             639             640
              641             642             643             644             645             646             647             648             649             650
              651             652             653             654             655             656             657             658             659             660
              661             662             663             664             665             666             667             668             669             670
              671             672             673             674             675             676             677             678             679             680
              681             682             683             684             685             686             687             688             689             690
              691             692             693             694             695             696             697             698             699             700
              701             702             703             704             705             706             707             708             709             710
              711             712             713             714             715             716             717             718             719             720
              721             722             723             724             725             726             727             728             729             730
              731             732             733             734             735             736             737             738             739             740
              741             742             743             744             745             746             747             748             749             750
              751             752             753             754             755             756             757             758             759             760
              761             762             763             764             765             766             767             768             769             770
              771             772             773             774             775             776             777             778             779             780
              781             782             783             784             785             786             787             788             789             790
              791             792             793             794             795             796             797             798             799             800
              801             802             803             804             805             806             807             808             809             810
              811             812             813             814             815             816             817             818             819             820
              821             822             823             824             825             826             827             828             829             830
              831             832             833             834             835             836             837             838             839             840
              841             842             843             844             845             846             847             848             849             850
              851             852             853             854             855             856             857             858             859             860
              861             862             863             864             865             866             867             868             869             870
              871             872             873             874             875             876             877             878             879             880
              881             882             883             884             885             886             887             888             889             890
              891             892             893             894             895             896             897             898             899             900
              901             902             903             904             905             906             907             908             909             910
              911             912             913             914             915             916             917             918             919             920
              921             922             923             924             925             926             927             928             929             930
              931             932             933             934             935             936             937             938             939             940
              941             942             943             944             945             946             947             948             949             950
              951             952             953             954             955             956             957             958             959             960
              961             962             963             964             965             966             967             968             969             970
              971             972             973             974             975             976             977             978             979             980
              981             982             983             984             985             986             987             988             989             990
              991             992             993             994             995             996             997             998             999            1000
             1001            1002            1003            1004            1005            1006            1007            1008            1009            1010
             1011            1012            1013            1014            1015            1016            1017            1018            1019            1020
             1021            1022            1023            1024            1025            1026            1027            1028            1029            1030
             1031            1032            1033            1034            1035            1036            1037            1038            1039            1040
             1041            1042            1043            1044            1045            1046            1047            1048            1049            1050
             1051            1052            1053            1054            1055            1056            1057            1058            1059            1060
             1061            1062            1063            1064            1065            1066            1067            1068            1069            1070
             1071            1072            1073            1074            1075            1076            1077            1078            1079            1080
             1081            1082            1083            1084            1085            1086            1087            1088            1089            1090
             1091            1092            1093            1094            1095            1096            1097            1098            1099            1100
             1101            1102            1103            1104            1105            1106            1107            1108            1109            1110
             1111            1112            1113            1114            1115            1116            1117            1118            1119            1120
             1121            1122            1123            1124            1125            1126            1127            1128            1129            1130
             1131            1132            1133            1134            1135            1136            1137            1138            1139            1140
             1141            1142            1143            1144            1145            1146            1147            1148            1149            1150
             1151            1152            1153            1154            1155            1156            1157            1158            1159            1160
             1161            1162            1163            1164            1165            1166            1167            1168            1169            1170
             1171            1172            1173            1174            1175            1176            1177            1178            1179            1180
             1181            1182            1183            1184            1185            1186            1187            1188            1189            1190
             1191            1192            1193            1194            1195            1196            1197            1198            1199            1200
             1201            1202            1203            1204            1205            1206            1207            1208            1209            1210
             1211            1212            1213            1214            1215            1216            1217            1218            1219            1220
             1221            1222            1223            1224            1225            1226            1227            1228            1229            1230
             1231            1232            1233            1234            1235            1236            1237            1238            1239            1240
             1241            1242            1243            1244            1245            1246            1247            1248            1249            1250
             1251            1252            1253            1254            1255            1256            1257            1258            1259            1260
             1261            1262            1263            1264            1265            1266            1267            1268            1269            1270
             1271            1272            1273            1274            1275            1276            1277            1278            1279            1280
             1281            1282            1283            1284            1285            1286            1287            1288            1289            1290
             1291            1292            1293            1294            1295            1296            1297            1298            1299            1300
             1301            1302            1303            1304            1305            1306            1307            1308            1309            1310
             1311            1312            1313            1314            1315            1316            1317            1318            1319            1320
             1321            1322            1323            1324            1325            1326            1327            1328            1329            1330
             1331            1332            1333            1334            1335            1336            1337            1338            1339            1340
             1341            1342            1343            1344            1345            1346            1347            1348            1349            1350
             1351            1352            1353            1354            1355            1356            1357            1358            1359            1360
             1361            1362            1363            1364            1365            1366            1367            1368            1369            1370
             1371            1372            1373            1374            1375            1376            1377            1378            1379            1380
             1381            1382            1383            1384            1385            1386            1387            1388            1389            1390
             1391            1392            1393            1394            1395            1396            1397            1398            1399            1400
             1401            1402            1403            1404            1405            1406            1407            1408            1409            1410
             1411            1412            1413            1414            1415            1416            1417            1418            1419            1420
             1421            1422            1423            1424            1425            1426            1427            1428            1429            1430
             1431            1432            1433            1434            1435            1436            1437            1438            1439            1440
             1441            1442            1443            1444            1445            1446            1447            1448            1449            1450
             1451            1452            1453            1454            1455            1456            1457            1458            1459            1460
             1461            1462            1463            1464            1465            1466            1467            1468            1469            1470
             1471            1472            1473            1474            1475            1476            1477            1478            1479            1480
             1481            1482            1483            1484            1485            1486            1487            1488            1489            1490
             1491            1492            1493            1494            1495            1496            1497            1498            1499            1500
             1501            1502            1503            1504            1505            1506            1507            1508            1509            1510
             1511            1512            1513            1514            1515            1516            1517            1518            1519            1520
             1521            1522            1523            1524            1525            1526            1527            1528            1529            1530
             1531            1532            1533            1534            1535            1536            1537            1538            1539            1540
             1541            1542            1543            1544            1545            1546            1547            1548            1549            1550
             1551            1552            1553            1554            1555            1556            1557            1558            1559            1560
             1561            1562            1563            1564            1565            1566            1567            1568            1569            1570
             1571            1572            1573            1574            1575            1576            1577            1578            1579            1580
             1581            1582            1583            1584            1585            1586            1587            1588            1589            1590
             1591            1592            1593            1594            1595            1596            1597            1598            1599            1600
             1601            1602            1603            1604            1605            1606            1607            1608            1609            1610
             1611            1612            1613            1614            1615            1616            1617            1618            1619            1620
             1621            1622            1623            1624            1625            1626            1627            1628            1629            1630
             1631            1632            1633            1634            1635            1636            1637            1638            1639            1640
             1641            1642            1643            1644            1645            1646            1647            1648            1649            1650
             1651            1652            1653            1654            1655            1656            1657            1658            1659            1660
             1661            1662            1663            1664            1665            1666            1667            1668            1669            1670
             1671            1672            1673            1674            1675            1676            1677            1678            1679            1680
             1681            1682            1683            1684            1685            1686            1687            1688            1689            1690
             1691            1692            1693            1694            1695            1696            1697            1698            1699            1700
             1701            1702            1703            1704            1705            1706            1707            1708            1709            1710
             1711            1712            1713            1714            1715            1716            1717            1718            1719            1720
             1721            1722            1723            1724            1725            1726            1727            1728            1729            1730
             1731            1732            1733            1734            1735            1736            1737            1738            1739            1740
             1741            1742            1743            1744            1745            1746            1747            1748            1749            1750
             1751            1752            1753            1754            1755            1756            1757            1758            1759            1760
             1761            1762            1763            1764            1765            1766            1767            1768            1769            1770
             1771            1772            1773            1774            1775            1776            1777            1778            1779            1780
             1781            1782            1783            1784            1785            1786            1787            1788            1789            1790
             1791            1792            1793            1794            1795            1796            1797            1798            1799            1800
             1801            1802            1803            1804            1805            1806            1807            1808            1809            1810
             1811            1812            1813            1814            1815            1816            1817            1818            1819            1820
             1821            1822            1823            1824            1825            1826            1827            1828            1829            1830
             1831            1832            1833            1834            1835            1836            1837            1838            1839            1840
             1841            1842            1843            1844            1845            1846            1847            1848            1849            1850
             1851            1852            1853            1854            1855            1856            1857            1858            1859            1860
             1861            1862            1863            1864            1865            1866            1867            1868            1869            1870
             1871            1872            1873            1874            1875            1876            1877            1878            1879            1880
             1881            1882            1883            1884            1885            1886            1887            1888            1889            1890
             1891            1892            1893            1894            1895            1896            1897            1898            1899            1900
             1901            1902            1903            1904            1905            1906            1907            1908            1909            1910
             1911            1912            1913            1914            1915            1916            1917            1918            1919            1920
             1921            1922            1923            1924            1925            1926            1927            1928            1929            1930
             1931            1932            1933            1934            1935            1936            1937            1938            1939            1940
             1941            1942            1943            1944            1945            1946            1947            1948            1949            1950
             1951            1952            1953            1954            1955            1956            1957            1958            1959            1960
             1961            1962            1963            1964            1965            1966            1967            1968            1969            1970
             1971            1972            1973            1974            1975            1976            1977            1978            1979            1980
             1981            1982            1983            1984            1985            1986            1987            1988            1989            1990
             1991            1992            1993            1994            1995            1996            1997            1998            1999            2000
             2001            2002            2003            2004            2005            2006            2007            2008            2009            2010
             2011            2012            2013            2014            2015            2016            2017            2018            2019            2020
             2021            2022            2023            2024            2025            2026            2027            2028            2029            2030
             2031            2032            2033            2034            2035            2036            2037            2038            2039            2040
             2041            2042            2043            2044            2045            2046            2047            2048            2049            2050
             2051            2052            2053            2054            2055            2056            2057            2058            2059            2060
             2061            2062            2063            2064            2065            2066            2067            2068            2069            2070
             2071            2072            2073            2074            2075            2076            2077            2078            2079            2080
             2081            2082            2083            2084            2085            2086            2087            2088            2089            2090
             2091            2092            2093            2094            2095            2096            2097            2098            2099            2100
             2101            2102            2103            2104            2105            2106            2107            2108            2109            2110
             2111            2112            2113            2114            2115            2116            2117            2118            2119            2120
             2121            2122            2123            2124            2125            2126            2127            2128            2129            2130
             2131            2132            2133            2134            2135            2136            2137            2138            2139            2140
             2141            2142            2143            2144            2145            2146            2147            2148            2149            2150
             2151            2152            2153            2154            2155            2156            2157            2158            2159            2160
             2161            2162            2163            2164            2165            2166            2167            2168            2169            2170
             2171            2172            2173            2174            2175            2176            2177            2178            2179            2180
             2181            2182            2183            2184            2185            2186            2187            2188            2189            2190
             2191            2192            2193            2194            2195            2196            2197            2198            2199            2200
             2201            2202            2203            2204            2205            2206            2207            2208            2209            2210
             2211            2212            2213            2214            2215            2216            2217            2218            2219            2220
             2221            2222            2223            2224            2225            2226            2227            2228            2229            2230
             2231            2232            2233            2234            2235            2236            2237            2238            2239            2240
             2241            2242            2243            2244            2245            2246            2247            2248            2249            2250
             2251            2252            2253            2254            2255            2256            2257            2258            2259            2260
             2261            2262            2263            2264            2265            2266            2267            2268            2269            2270
             2271            2272            2273            2274            2275            2276            2277            2278            2279            2280
             2281            2282            2283            2284            2285            2286            2287            2288            2289            2290
             2291            2292            2293            2294            2295            2296            2297            2298            2299            2300
             2301            2302            2303            2304            2305            2306            2307            2308            2309            2310
             2311            2312            2313            2314            2315            2316            2317            2318            2319            2320
             2321            2322            2323            2324            2325            2326            2327            2328            2329            2330
             2331            2332            2333            2334            2335            2336            2337            2338            2339            2340
             2341            2342            2343            2344            2345            2346            2347            2348            2349            2350
             2351            2352            2353            2354            2355            2356            2357            2358            2359            2360
             2361            2362            2363            2364            2365            2366            2367            2368            2369            2370
             2371            2372            2373            2374            2375            2376            2377            2378            2379            2380
             2381            2382            2383            2384            2385            2386            2387            2388            2389            2390
             2391            2392            2393            2394            2395            2396            2397            2398            2399            2400
             2401            2402            2403            2404            2405            2406            2407            2408            2409            2410
             2411            2412            2413            2414            2415            2416            2417            2418            2419            2420
             2421            2422            2423            2424            2425            2426            2427            2428            2429            2430
             2431            2432            2433            2434            2435            2436            2437            2438            2439            2440
             2441            2442            2443            2444            2445            2446            2447            2448            2449            2450
             2451            2452            2453            2454            2455            2456            2457            2458            2459            2460
             2461            2462            2463            2464            2465            2466            2467            2468            2469            2470
             2471            2472            2473            2474            2475            2476            2477            2478            2479            2480
             2481            2482            2483            2484            2485            2486            2487            2488            2489            2490
             2491            2492            2493            2494            2495            2496            2497            2498            2499            2500
             2501            2502            2503            2504            2505            2506            2507            2508            2509            2510
             2511            2512            2513            2514            2515            2516            2517            2518            2519            2520
             2521            2522            2523            2524            2525            2526            2527            2528            2529            2530
             2531            2532            2533            2534            2535            2536            2537            2538            2539            2540
             2541            2542            2543            2544            2545            2546            2547            2548            2549            2550
             2551            2552            2553            2554            2555            2556            2557            2558            2559            2560
             2561            2562            2563            2564            2565            2566            2567            2568            2569            2570
             2571            2572            2573            2574            2575            2576            2577            2578            2579            2580
             2581            2582            2583            2584            2585            2586            2587            2588            2589            2590
             2591            2592            2593            2594            2595            2596            2597            2598            2599            2600
             2601            2602            2603            2604            2605            2606            2607            2608            2609            2610
             2611            2612            2613            2614            2615            2616            2617            2618            2619            2620
             2621            2622            2623            2624            2625            2626            2627            2628            2629            2630
             2631            2632            2633            2634            2635            2636            2637            2638            2639            2640
             2641            2642            2643            2644            2645            2646            2647            2648            2649            2650
             2651            2652            2653            2654            2655            2656            2657            2658            2659            2660
             2661            2662            2663            2664            2665            2666            2667            2668            2669            2670
             2671            2672            2673            2674            2675            2676            2677            2678            2679            2680
             2681            2682            2683            2684            2685            2686            2687            2688            2689            2690
             2691            2692            2693            2694            2695            2696            2697            2698            2699            2700
             2701            2702            2703            2704            2705            2706            2707            2708            2709            2710
             2711            2712            2713            2714            2715            2716            2717            2718            2719            2720
             2721            2722            2723            2724            2725            2726            2727            2728            2729            2730
             2731            2732            2733            2734            2735            2736            2737            2738            2739            2740
             2741            2742            2743            2744            2745            2746            2747            2748            2749            2750
             2751            2752            2753            2754            2755            2756            2757            2758            2759            2760
             2761            2762            2763            2764            2765            2766            2767            2768            2769            2770
             2771            2772            2773            2774            2775            2776            2777            2778            2779            2780
             2781            2782            2783            2784            2785            2786            2787            2788            2789            2790
             2791            2792            2793            2794            2795            2796            2797            2798            2799            2800
             2801            2802            2803            2804            2805            2806            2807            2808            2809            2810
             2811            2812            2813            2814            2815            2816            2817            2818            2819            2820
             2821            2822            2823            2824            2825            2826            2827            2828            2829            2830
             2831            2832            2833            2834            2835            2836            2837            2838            2839            2840
             2841            2842            2843            2844            2845            2846            2847            2848            2849            2850
             2851            2852            2853            2854            2855            2856            2857            2858            2859            2860
             2861            2862            2863            2864            2865            2866            2867            2868            2869            2870
             2871            2872            2873            2874            2875            2876            2877            2878            2879            2880
             2881            2882            2883            2884            2885            2886            2887            2888            2889            2890
             2891            2892            2893            2894            2895            2896            2897            2898            2899            2900
             2901            2902            2903            2904            2905            2906            2907            2908            2909            2910
             2911            2912            2913            2914            2915            2916            2917            2918            2919            2920
             2921            2922            2923            2924            2925            2926            2927            2928            2929            2930
             2931            2932            2933            2934            2935            2936            2937            2938            2939            2940
             2941            2942            2943            2944            2945            2946            2947            2948            2949            2950
             2951            2952            2953            2954            2955            2956            2957            2958            2959            2960
             2961            2962            2963            2964            2965            2966            2967            2968            2969            2970
             2971            2972            2973            2974            2975            2976            2977            2978            2979            2980
             2981            2982            2983            2984            2985            2986            2987            2988            2989            2990
             2991            2992            2993            2994            2995            2996            2997            2998            2999            3000
             3001            3002            3003            3004            3005            3006            3007            3008            3009            3010
             3011            3012            3013            3014            3015            3016            3017            3018            3019            3020
             3021            3022            3023            3024            3025            3026            3027            3028            3029            3030
             3031            3032            3033            3034            3035            3036            3037            3038            3039            3040
             3041            3042            3043            3044            3045            3046            3047            3048            3049            3050
             3051            3052            3053            3054            3055            3056            3057            3058            3059            3060
             3061            3062            3063            3064            3065            3066            3067            3068            3069            3070
             3071            3072            3073            3074            3075            3076            3077            3078            3079            3080
             3081            3082            3083            3084            3085            3086            3087            3088            3089            3090
             3091            3092            3093            3094            3095            3096            3097            3098            3099            3100
             3101            3102            3103            3104            3105            3106            3107            3108            3109            3110
             3111            3112            3113            3114            3115            3116            3117            3118            3119            3120
             3121            3122            3123            3124            3125            3126            3127            3128            3129            3130
             3131            3132            3133            3134            3135
 ................................................................................................................................................................
   1      138.212         137.919         137.401         136.604         135.659         135.361         135.499         135.150         135.302         135.482    
          135.687         135.890         136.087         136.277         136.460         136.642         136.824         137.003         137.160         137.285    
          137.388         137.467         137.513         139.161         138.796         138.431         137.918         137.190         136.112         135.333    
          136.577         136.091         135.023         135.207         135.416         134.999         135.443         135.760         136.029         136.275    
          136.505         136.722         136.930         137.126         137.301         137.449         137.580         137.694         137.784         137.846    
          137.871         139.394         139.419         139.219         138.905         138.459         137.870         137.112         136.171         135.529    
          136.666         136.275         135.061         135.329         135.697         135.123         135.558         135.723         135.371         135.618    
          135.968         136.286         136.565         136.818         137.052         137.268         137.461         137.627         137.770         137.895    
          138.001         138.081         138.126         138.114         139.787         139.836         139.799         139.640         139.377         139.003    
          138.523         137.936         137.262         136.425         135.149         135.415         135.781         135.175         135.684         135.872    
          135.454         135.735         136.127         136.467         136.768         137.040         137.283         137.503         137.693         137.858    
          138.005         138.133         138.240         138.317         138.350         138.327         140.143         140.239         140.261         140.208    
          140.067         139.844         139.534         139.137         138.656         138.086         137.437         136.535         135.196         135.491    
          135.850         135.218         135.779         135.971         135.522         135.810         136.214         136.583         136.905         137.183    
          137.435         137.651         137.843         138.022         138.185         138.328         138.444         138.527         138.566         138.547    
          140.427         140.569         140.646         140.660         140.610         140.490         140.301         140.043         139.712         139.308    
          138.823         138.256         137.581         136.619         135.253         135.542         135.924         135.302         135.775         135.982    
          135.390         135.755         136.263         136.659         136.974         137.256         137.503         137.727         137.943         138.151    
          138.343         138.509         138.647         138.749         138.806         138.803         140.641         140.812         140.933         141.002    
          141.020         140.983         140.889         140.733         140.519         140.244         139.903         139.491         139.005         138.439    
          137.726         136.747         135.395         135.415         136.085         135.451         135.796         136.040         135.480         135.843    
          136.317         136.661         136.958         137.237         137.501         137.765         138.029         138.282         138.510         138.710    
          138.878         139.008         139.093         139.120         141.023         141.019         141.130         141.238         141.314         141.346    
          141.327         141.258         141.134         140.958         140.732         140.447         140.101         139.689         139.212         138.645    
          137.934         137.002         135.566         135.540         136.481         136.008         135.906         136.034         135.719         135.738    
          136.217         136.485         136.825         137.149         137.471         137.811         138.144         138.447         138.716         138.953    
          139.157         139.327         139.458         139.540         140.426         140.925         141.175         141.357         141.493         141.588    
          141.641         141.646         141.601         141.508         141.368         141.182         140.946         140.656         140.310         139.907    
          139.441         138.886         138.258         137.543         136.689         136.298         137.324         137.093         135.827         135.698    
          136.752         136.546         135.686         135.982         136.238         135.793         136.246         136.444         135.807         136.155    
          136.641         137.025         137.487         137.927         138.319         138.665         138.974         139.251         139.501         139.732    
          139.965         140.271         140.557         140.827         141.086         141.329         141.560         141.781         141.995         142.203    
          142.404         142.600         142.789         142.974         143.155         143.330         143.497         143.654         143.802         143.933    
          144.041         144.114         144.137         144.069         143.813         142.972         142.540         142.369         142.347       -1.000000E+30
        -1.000000E+30   -1.000000E+30   -1.000000E+30   -1.000000E+30   -1.000000E+30   -1.000000E+30   -1.000000E+30     140.462         140.962         141.300    
          141.542         141.716         141.835         141.908         141.938         141.919         141.857         141.749         141.597         141.402    
          141.157         140.865         140.522         140.131         139.683         139.182         138.663         138.138         137.611         137.012    
          136.093         135.747         136.700         136.390         135.993         136.174         135.774         135.700         136.350         136.557    
          135.709         136.001         137.008         137.641         138.132         138.558         138.938         139.285         139.606         139.909    
          140.209         140.523         140.825         141.115         141.391         141.651         141.900         142.140         142.374         142.601    
          142.826         143.048         143.265         143.482         143.696         143.905         144.107         144.302         144.484         144.648    
          144.789         144.904         144.980         145.004         144.974       -1.000000E+30   -1.000000E+30   -1.000000E+30   -1.000000E+30   -1.000000E+30
        -1.000000E+30   -1.000000E+30   -1.000000E+30   -1.000000E+30   -1.000000E+30   -1.000000E+30   -1.000000E+30   -1.000000E+30     140.529         141.046    
          141.427         141.711         141.920         142.066         142.158         142.207         142.214         142.179         142.102         141.982    
          141.821         141.615         141.366         141.074         140.740         140.367         139.954         139.512         139.052         138.567    
          138.048         137.458         136.796         136.121         135.647         136.423         135.764         136.482         137.293         137.889    
          138.392         138.844         139.258         139.642         140.004         140.352         140.689         141.007         141.314         141.604    
          141.878         142.142         142.397         142.645         142.890         143.133         143.372         143.612         143.853         144.092    
          144.328         144.558         144.780         144.990         145.182         145.353         145.502         145.620         145.704         145.747    
        -1.000000E+30   -1.000000E+30   -1.000000E+30   -1.000000E+30   -1.000000E+30   -1.000000E+30   -1.000000E+30   -1.000000E+30   -1.000000E+30   -1.000000E+30
        -1.000000E+30   -1.000000E+30   -1.000000E+30   -1.000000E+30     140.618         141.150         141.557         141.870         142.108         142.282    
          142.397         142.461         142.487         142.476         142.426         142.335         142.205         142.035         141.825         141.578    
          141.291         140.968         140.612         140.228         139.811         139.354         138.856         138.319         137.715         136.947    
          136.426         137.308         136.973         135.831         135.849         136.467         135.907         136.763         137.562         138.159    
          138.686         139.167         139.616         140.036         140.428         140.787         141.120         141.440         141.742         142.028    
          142.303         142.569         142.828         143.086         143.344         143.600         143.859         144.121         144.382         144.641    
          144.895         145.142         145.377         145.595         145.794         145.973         146.129         146.259         146.350       -1.000000E+30
        -1.000000E+30   -1.000000E+30   -1.000000E+30   -1.000000E+30   -1.000000E+30   -1.000000E+30   -1.000000E+30   -1.000000E+30   -1.000000E+30   -1.000000E+30
        -1.000000E+30   -1.000000E+30   -1.000000E+30   -1.000000E+30     140.715         141.261         141.687         142.023         142.284         142.480    
          142.620         142.706         142.746         142.751         142.722         142.659         142.558         142.420         142.244         142.034    
          141.788         141.506         141.189         140.843         140.465         140.037         139.560         139.034         138.457         137.766    
          136.927         136.299         137.272         136.857         135.997         136.485         136.194         136.183         137.110         137.850    
          138.455         139.004         139.530         140.022         140.453         140.828         141.174         141.502         141.813         142.107    
          142.391         142.665         142.934         143.202         143.472         143.744         144.022         144.303         144.585         144.866    
          145.143         145.413         145.673         145.916         146.141         146.349         146.538         146.710         146.888         147.157    
        -1.000000E+30   -1.000000E+30   -1.000000E+30   -1.000000E+30   -1.000000E+30   -1.000000E+30   -1.000000E+30   -1.000000E+30     150.151       -1.000000E+30
        -1.000000E+30   -1.000000E+30   -1.000000E+30   -1.000000E+30   -1.000000E+30     140.814         141.372         141.814         142.168         142.447    
          142.664         142.824         142.935         142.996         143.013         142.998         142.957         142.882         142.772         142.627    
          142.447         142.234         141.986         141.703         141.386         141.037         140.643         140.193         139.691         139.132    
          138.500         137.738         136.808         136.151         137.213         136.769         136.434         136.852         136.120         136.586    
          137.409         138.137         138.765         139.401         139.970         140.421         140.815         141.173         141.509         141.824    
          142.124         142.411         142.690         142.964         143.241         143.522         143.810         144.106         144.407         144.711    
          145.013         145.314         145.608         145.892         146.158         146.408         146.642         146.855         147.046         147.215    
          147.354       -1.000000E+30   -1.000000E+30     148.550       -1.000000E+30   -1.000000E+30   -1.000000E+30     149.753       -1.000000E+30     150.169    
          150.180       -1.000000E+30   -1.000000E+30   -1.000000E+30   -1.000000E+30   -1.000000E+30   -1.000000E+30     140.911         141.480         141.934    
          142.303         142.598         142.830         143.010         143.141         143.225         143.263         143.262         143.235         143.181    
          143.094         142.973         142.819         142.635         142.416         142.163         141.873         141.547         141.185         140.766    
          140.291         139.764         139.177         138.501         137.688         136.731         136.130         137.088         136.552         136.674    
          137.090         136.144         136.739         137.625         138.423         139.201         139.869         140.352         140.760         141.126    
          141.463         141.779         142.077         142.364         142.642         142.920         143.204         143.497         143.800         144.115    
          144.437         144.764         145.091         145.415         145.734         146.042         146.332         146.606         146.864         147.097    
          147.305         147.480         147.597       -1.000000E+30   -1.000000E+30   -1.000000E+30   -1.000000E+30   -1.000000E+30   -1.000000E+30   -1.000000E+30
          150.124         150.159         150.175       -1.000000E+30   -1.000000E+30   -1.000000E+30   -1.000000E+30   -1.000000E+30   -1.000000E+30   -1.000000E+30
          141.005         141.580         142.046         142.429         142.735         142.980         143.175         143.324         143.428         143.489    
          143.509         143.492         143.451         143.384         143.285         143.156         142.996         142.803         142.577         142.313    
          142.012         141.671         141.287         140.845         140.346         139.796         139.180         138.456         137.557         136.329    
          136.187         136.836         136.164         136.816         137.234         136.303         136.857         137.869         138.850         139.678    
          140.251         140.668         141.034         141.369         141.677         141.968         142.249         142.524         142.801         143.089    
          143.393         143.713         144.049         144.396         144.749         145.103         145.453         145.796         146.128         146.443    
          146.741         147.021         147.278         147.509         147.712         147.863       -1.000000E+30   -1.000000E+30   -1.000000E+30   -1.000000E+30
        -1.000000E+30     149.893         149.973         150.072         150.128         150.153       -1.000000E+30   -1.000000E+30   -1.000000E+30   -1.000000E+30
        -1.000000E+30   -1.000000E+30   -1.000000E+30     141.094         141.677         142.150         142.536         142.851         143.108         143.318    
          143.483         143.606         143.687         143.729         143.729         143.697         143.646         143.568         143.461         143.323    
          143.153         142.951         142.713         142.435         142.118         141.756         141.349         140.884         140.362         139.793    
          139.148         138.400         137.417         136.097         136.208         136.662         136.104         137.025         137.585         136.535    
          137.311         138.391         139.374         140.079         140.536         140.897         141.224         141.521         141.798         142.064    
          142.330         142.602         142.891         143.205         143.544         143.906         144.283         144.667         145.052         145.432    
          145.802         146.160         146.499         146.820         147.122         147.401         147.663         147.916         148.188         148.587    
          148.901         149.166         149.395         149.602         149.799         149.924         150.019         150.081         150.117       -1.000000E+30
        -1.000000E+30   -1.000000E+30   -1.000000E+30   -1.000000E+30   -1.000000E+30   -1.000000E+30     141.175         141.764         142.238         142.626    
          142.947         143.215         143.437         143.618         143.758         143.858         143.920         143.944         143.928         143.885    
          143.824         143.737         143.619         143.471         143.291         143.076         142.822         142.528         142.190         141.805    
          141.371         140.879         140.343         139.755         139.092         138.305         137.218         136.115         136.978         136.036    
          136.729         137.911         139.021         139.841         140.358         140.715         141.027         141.307         141.564         141.808    
          142.053         142.313         142.599         142.923         143.286         143.682         144.097         144.520         144.942         145.355    
          145.755         146.140         146.504         146.847         147.169         147.468         147.753         148.030         148.314         148.624    
          148.909         149.159         149.377         149.569         149.733         149.857         149.947         150.012         150.079       -1.000000E+30
        -1.000000E+30   -1.000000E+30   -1.000000E+30   -1.000000E+30   -1.000000E+30   -1.000000E+30     141.246         141.841         142.313         142.699    
          143.021         143.297         143.531         143.726         143.882         144.001         144.084         144.129         144.137         144.107    
          144.057         143.986         143.887         143.758         143.598         143.406         143.175         142.905         142.592         142.231    
          141.818         141.357         140.847         140.290         139.655         138.914         137.944         136.497         136.206         137.034    
          136.131         137.344         138.616         139.536         140.137         140.499         140.783         141.037         141.267         141.479    
          141.689         141.919         142.194         142.530         142.929         143.373         143.840         144.312         144.778         145.229    
          145.662         146.075         146.465         146.830         147.168         147.483         147.783         148.070         148.352         148.631    
          148.894         149.127         149.332         149.509         149.656         149.769         149.849         149.892       -1.000000E+30   -1.000000E+30
        -1.000000E+30   -1.000000E+30   -1.000000E+30   -1.000000E+30   -1.000000E+30   -1.000000E+30     141.309         141.917         142.375         142.748    
          143.069         143.351         143.597         143.806         143.979         144.116         144.219         144.287         144.318         144.311    
          144.272         144.214         144.131         144.020         143.878         143.705         143.497         143.250         142.962         142.625    
          142.239         141.800         141.323         140.787         140.168         139.433         138.543         137.511         136.693         137.731    
          137.094         136.252         137.207         136.217         137.172         138.274         139.214         139.856         140.233         140.487    
          140.713         140.915         141.082         141.238         141.412         141.652         142.001         142.458         142.977         143.514    
          144.048         144.567         145.062         145.531         145.973         146.387         146.771         147.125         147.453         147.762    
          148.053         148.331         148.596         148.843         149.064         149.256         149.421         149.557         149.662         149.737    
          149.771         149.743       -1.000000E+30   -1.000000E+30   -1.000000E+30   -1.000000E+30   -1.000000E+30   -1.000000E+30   -1.000000E+30     141.362    
          142.020         142.417         142.762         143.078         143.369         143.629         143.853         144.043         144.200         144.325    
          144.415         144.470         144.489         144.469         144.424         144.357         144.262         144.138         143.983         143.794    
          143.569         143.304         142.992         142.630         142.220         141.767         141.255         140.648         139.917         139.019    
          137.736         136.373         137.172         136.403         137.174         138.099         138.926         139.519         139.901         140.133    
          140.317         140.467         140.585         140.677         140.767         140.926         141.284         141.846         142.488         143.123    
          143.735         144.315         144.860         145.369         145.842         146.277         146.678         147.046         147.384         147.698    
          147.991         148.265         148.521         148.757         148.968         149.151         149.306         149.434         149.537         149.617    
          149.668         149.681       -1.000000E+30   -1.000000E+30   -1.000000E+30   -1.000000E+30   -1.000000E+30   -1.000000E+30   -1.000000E+30     142.268    
          142.409         142.711         143.032         143.338         143.617         143.862         144.073         144.252         144.400         144.514    
          144.593         144.638         144.646         144.619         144.567         144.489         144.382         144.244         144.075         143.870    
          143.626         143.336         142.993         142.611         142.186         141.697         141.107         140.377         139.425         137.876    
          136.404         137.149         136.408         137.137         137.936         138.617         139.114         139.461         139.663         139.768    
          139.824         139.855         139.851         139.823         139.881         140.245         141.001         141.887         142.675         143.381    
          144.033         144.632         145.181         145.684         146.142         146.559         146.937         147.282         147.598         147.892    
          148.164         148.413         148.639         148.840         149.015         149.162         149.284         149.387         149.479         149.566    
          149.603       -1.000000E+30   -1.000000E+30   -1.000000E+30   -1.000000E+30   -1.000000E+30   -1.000000E+30   -1.000000E+30     142.128         142.540    
          142.912         143.250         143.556         143.828         144.065         144.270         144.442         144.581         144.687         144.758    
          144.794         144.794         144.760         144.700         144.611         144.493         144.343         144.158         143.933         143.658    
          143.335         142.973         142.576         142.117         141.560         140.859         139.852         138.290         136.742         138.521    
          136.772         136.505         137.110         136.828         137.091         137.671         138.204         138.598         138.869         139.019    
          139.047         139.011         138.912         138.765         138.411         138.587         138.585         137.545         137.227         138.773    
          139.086         137.348         137.964         139.697         141.132         142.172         142.995         143.727         144.384         144.974    
          145.504         145.982         146.414         146.802         147.151         147.469         147.761         148.028         148.270         148.489    
          148.681         148.847         148.986         149.102         149.199         149.301         149.478         149.543       -1.000000E+30   -1.000000E+30
        -1.000000E+30   -1.000000E+30   -1.000000E+30   -1.000000E+30   -1.000000E+30     142.284         142.721         143.104         143.446         143.752    
          144.020         144.252         144.450         144.616         144.748         144.846         144.910         144.940         144.934         144.895    
          144.825         144.728         144.599         144.434         144.223         143.964         143.662         143.323         142.948         142.523    
          142.012         141.363         140.482         139.031         137.429         139.664         138.886         136.661         136.710         138.033    
          137.078         137.085         137.282         136.628         136.831         137.549         137.932         138.117         138.202         138.193    
          138.085         137.850         137.663         137.429         136.852         137.077         136.547         136.831         137.033         136.721    
          136.797         137.143         137.144         136.897         137.021         137.735         139.009         137.225         138.672         140.335    
          141.644         142.601         143.414         144.126         144.754         145.308         145.802         146.244         146.639         146.992    
          147.311         147.600         147.861         148.095         148.304         148.487         148.642         148.770         148.873         148.949    
          148.998       -1.000000E+30   -1.000000E+30   -1.000000E+30   -1.000000E+30   -1.000000E+30   -1.000000E+30   -1.000000E+30   -1.000000E+30   -1.000000E+30
          142.455         142.894         143.283         143.629         143.931         144.194         144.421         144.614         144.774         144.900    
          144.993         145.053         145.079         145.068         145.023         144.947         144.839         144.692         144.498         144.259    
          143.980         143.667         143.318         142.926         142.475         141.919         141.217         140.335         139.309         137.987    
          137.072         138.932         138.486         136.749         136.879         137.932         137.288         137.237         137.327         136.867    
          136.807         137.377         137.397         136.759         136.768         137.419         137.421         136.787         136.786         137.412    
          137.389         136.791         136.785         137.322         137.210         136.758         136.730         136.891         136.679         136.791    
          136.954         136.761         136.912         136.686         136.588         136.760         136.422         136.519         136.468         136.581    
          136.406         136.648         136.441         136.495         136.681         136.655         136.965         137.333         138.426         137.497    
          138.284         139.676         141.154         142.235         143.124         143.878         144.532         145.100         145.604         146.053    
          146.450         146.802         147.120         147.406         147.661         147.886         148.082         148.252         148.395         148.510    
          148.598         148.656         148.687       -1.000000E+30   -1.000000E+30   -1.000000E+30   -1.000000E+30   -1.000000E+30   -1.000000E+30   -1.000000E+30
        -1.000000E+30   -1.000000E+30     142.611         143.057         143.452         143.794         144.092         144.351         144.574         144.764    
          144.920         145.043         145.132         145.188         145.209         145.194         145.142         145.057         144.932         144.762    
          144.546         144.294         144.008         143.686         143.326         142.928         142.469         141.920         141.284         140.610    
          139.933         139.229         138.676         138.367         138.150         137.970         137.814         137.708         137.517         137.306    
          136.980         136.735         137.236         137.076         136.588         136.908         136.757         136.670         137.288         137.822    
          136.798         137.026         138.538         139.416         137.452         139.038         140.670         141.931         142.877         143.655    
          144.316         144.888         145.393         145.841         146.234         146.582         146.893         147.172         147.420         147.636    
          147.820         147.975         148.104         148.206         148.280         148.323         148.342       -1.000000E+30   -1.000000E+30   -1.000000E+30
        -1.000000E+30   -1.000000E+30   -1.000000E+30   -1.000000E+30   -1.000000E+30   -1.000000E+30     142.756         143.213         143.604         143.941    
          144.237         144.494         144.716         144.904         145.057         145.176         145.262         145.313         145.327         145.305    
          145.249         145.153         145.013         144.827         144.600         144.341         144.050         143.726         143.370         142.983    
          142.547         142.056         141.528         140.989         140.485         140.069         139.714         139.365         139.063         138.799    
          138.566         138.313         138.023         137.640         137.233         137.148         137.236         137.218         137.302         137.331    
          138.844         137.539         138.835         140.389         141.729         142.700         143.464         144.112         144.672         145.165    
          145.604         145.988         146.325         146.627         146.897         147.134         147.338         147.511         147.654         147.768    
          147.857         147.915         147.945         147.952       -1.000000E+30   -1.000000E+30   -1.000000E+30   -1.000000E+30   -1.000000E+30   -1.000000E+30
        -1.000000E+30   -1.000000E+30   -1.000000E+30     142.905         143.355         143.740         144.076         144.372         144.629         144.850    
          145.034         145.183         145.299         145.379         145.423         145.433         145.408         145.345         145.237         145.083    
          144.887         144.656         144.395         144.110         143.801         143.466         143.108         142.710         142.280         141.831    
          141.395         140.989         140.613         140.248         139.904         139.583         139.270         138.935         138.546         137.985    
          137.342         137.008         137.185         137.214         137.068         137.396         137.513         137.941         138.794         140.345    
          141.575         142.544         143.305         143.918         144.450         144.921         145.338         145.705         146.026         146.312    
          146.569         146.796         146.990         147.150         147.279         147.379         147.452         147.492         147.506         147.495    
        -1.000000E+30   -1.000000E+30   -1.000000E+30   -1.000000E+30   -1.000000E+30   -1.000000E+30   -1.000000E+30   -1.000000E+30   -1.000000E+30     143.040    
          143.480         143.864         144.203         144.501         144.757         144.974         145.153         145.298         145.408         145.483    
          145.524         145.530         145.499         145.426         145.309         145.148         144.948         144.717         144.463         144.194    
          143.911         143.609         143.278         142.915         142.529         142.138         141.751         141.371         140.993         140.618    
          140.251         139.879         139.485         139.040         138.416         137.409         137.302         137.808         137.390         137.716    
          138.218         137.713         138.271         139.134         140.372         141.464         142.377         143.123         143.716         144.212    
          144.655         145.043         145.381         145.677         145.942         146.179         146.392         146.576         146.725         146.840    
          146.925         146.979         147.004         146.994         146.930         146.702       -1.000000E+30   -1.000000E+30   -1.000000E+30   -1.000000E+30
        -1.000000E+30   -1.000000E+30   -1.000000E+30   -1.000000E+30     143.149         143.591         143.982         144.325         144.621         144.872    
          145.082         145.257         145.397         145.503         145.576         145.615         145.616         145.578         145.499         145.379    
          145.218         145.020         144.794         144.555         144.308         144.051         143.773         143.463         143.124         142.768    
          142.401         142.023         141.634         141.234         140.830         140.416         139.983         139.514         138.950         138.224    
          137.577         138.194         137.715         137.927         139.162         140.373         141.382         142.231         142.920         143.473    
          143.948         144.361         144.713         145.016         145.275         145.508         145.716         145.907         146.079         146.216    
          146.318         146.389         146.428         146.439         146.428         146.407         146.361       -1.000000E+30   -1.000000E+30   -1.000000E+30
        -1.000000E+30   -1.000000E+30   -1.000000E+30   -1.000000E+30   -1.000000E+30     143.238         143.694         144.096         144.439         144.724    
          144.966         145.171         145.342         145.482         145.589         145.660         145.695         145.692         145.650         145.570    
          145.451         145.293         145.099         144.885         144.667         144.442         144.206         143.940         143.640         143.313    
          142.965         142.594         142.201         141.783         141.347         140.892         140.419         139.924         139.369         138.706    
          138.079         137.736         138.196         137.716         139.098         140.366         141.319         142.082         142.706         143.222    
          143.663         144.035         144.345         144.602         144.813         144.998         145.166         145.322         145.473         145.599    
          145.698         145.761         145.778         145.766         145.744         145.786         145.880       -1.000000E+30   -1.000000E+30   -1.000000E+30
        -1.000000E+30   -1.000000E+30   -1.000000E+30   -1.000000E+30   -1.000000E+30     143.320         143.804         144.206         144.530         144.801    
          145.037         145.244         145.420         145.561         145.667         145.736         145.768         145.763         145.721         145.642    
          145.526         145.372         145.188         144.994         144.796         144.587         144.357         144.090         143.790         143.460    
          143.098         142.704         142.274         141.811         141.318         140.796         140.245         139.658         138.964         138.285    
          137.709         138.322         137.723         139.110         140.361         141.256         141.939         142.497         142.965         143.358    
          143.682         143.941         144.144         144.292         144.405         144.503         144.604         144.718         144.856         144.973    
          145.034         144.993         144.917         144.816         144.892         145.378       -1.000000E+30   -1.000000E+30   -1.000000E+30   -1.000000E+30
        -1.000000E+30   -1.000000E+30   -1.000000E+30   -1.000000E+30     143.442         143.934         144.298         144.600         144.867         145.104    
          145.316         145.493         145.634         145.740         145.807         145.838         145.833         145.793         145.717         145.605    
          145.459         145.293         145.117         144.930         144.725         144.487         144.209         143.896         143.543         143.149    
          142.710         142.225         141.695         141.120         140.481         139.772         138.981         138.355         137.807         138.287    
          137.845         139.180         140.349         141.175         141.792         142.287         142.702         143.039         143.309         143.511    
          143.646         143.720         143.740         143.738         143.743         143.814         143.996         144.128         144.192         144.286    
          144.253         143.816         143.686         144.183         144.034         143.648         143.669         143.790         143.739         143.818    
          143.831         143.701         143.680         143.789         143.762       -1.000000E+30   -1.000000E+30   -1.000000E+30   -1.000000E+30   -1.000000E+30
        -1.000000E+30   -1.000000E+30   -1.000000E+30   -1.000000E+30   -1.000000E+30   -1.000000E+30   -1.000000E+30   -1.000000E+30   -1.000000E+30   -1.000000E+30
        -1.000000E+30   -1.000000E+30   -1.000000E+30   -1.000000E+30   -1.000000E+30   -1.000000E+30   -1.000000E+30   -1.000000E+30   -1.000000E+30     143.643    
          144.047         144.382         144.673         144.934         145.172         145.383         145.561         145.705         145.810         145.877    
          145.907         145.904         145.866         145.793         145.685         145.550         145.398         145.234         145.048         144.831    
          144.573         144.274         143.929         143.538         143.095         142.594         142.034         141.402         140.659         139.747    
          138.667         137.946         138.113         137.887         138.526         139.401         140.363         141.061         141.607         142.054    
          142.417         142.702         142.919         143.062         143.123         143.106         143.008         142.843         142.651         142.847    
          142.967         142.044         142.176         143.152         143.264         142.481         142.730         143.257         143.433         143.164    
          143.388         143.517         143.562         143.550         143.632         143.639         143.753         143.730         143.798         143.865    
          143.951       -1.000000E+30   -1.000000E+30   -1.000000E+30   -1.000000E+30   -1.000000E+30   -1.000000E+30   -1.000000E+30   -1.000000E+30   -1.000000E+30
        -1.000000E+30   -1.000000E+30   -1.000000E+30   -1.000000E+30   -1.000000E+30   -1.000000E+30   -1.000000E+30   -1.000000E+30   -1.000000E+30   -1.000000E+30
        -1.000000E+30   -1.000000E+30   -1.000000E+30     143.770         144.143         144.462         144.744         145.002         145.236         145.446    
          145.632         145.777         145.879         145.943         145.974         145.971         145.935         145.864         145.762         145.635    
          145.491         145.324         145.126         144.886         144.599         144.262         143.873         143.433         142.927         142.350    
          141.682         140.843         139.603         138.032         137.732         137.857         138.152         138.080         138.806         138.551    
          138.992         139.621         140.337         140.921         141.400         141.787         142.095         142.329         142.498         142.592    
          142.591         142.466         142.174         142.080         141.896         141.555         141.163         141.609         141.486         141.194    
          141.693         142.052         142.377         142.180         142.464         142.840         143.312         143.625         143.825         143.953    
          144.020       -1.000000E+30   -1.000000E+30   -1.000000E+30   -1.000000E+30   -1.000000E+30   -1.000000E+30   -1.000000E+30   -1.000000E+30   -1.000000E+30
        -1.000000E+30   -1.000000E+30   -1.000000E+30   -1.000000E+30   -1.000000E+30   -1.000000E+30   -1.000000E+30     143.867         144.222         144.534    
          144.815         145.069         145.300         145.519         145.708         145.845         145.941         146.003         146.033         146.031    
          145.994         145.926         145.828         145.705         145.556         145.373         145.147         144.871         144.541         144.155    
          143.715         143.218         142.649         141.989         141.144         139.803         137.866         138.274         138.029         138.078    
          138.941         139.680         140.258         140.758         141.167         141.490         141.738         141.921         142.043         142.098    
          142.043         141.787         141.556         141.268         141.115         140.620         140.804         141.000         140.891         141.235    
          141.799         142.469         142.952         143.342         143.628         143.829         143.957       -1.000000E+30   -1.000000E+30   -1.000000E+30
        -1.000000E+30   -1.000000E+30   -1.000000E+30   -1.000000E+30   -1.000000E+30   -1.000000E+30   -1.000000E+30   -1.000000E+30   -1.000000E+30   -1.000000E+30
        -1.000000E+30   -1.000000E+30   -1.000000E+30   -1.000000E+30   -1.000000E+30     143.942         144.288         144.597         144.880         145.138    
          145.378         145.602         145.776         145.901         145.993         146.054         146.082         146.077         146.039         145.971    
          145.872         145.741         145.571         145.355         145.087         144.764         144.385         143.955         143.475         142.935    
          142.332         141.534         140.340         138.789         137.890         139.150         138.167         138.552         138.992         138.281    
          138.894         139.531         140.095         140.548         140.899         141.160         141.345         141.468         141.544         141.571    
          141.472         141.072         140.499         140.470         140.163         140.693         141.351         142.037         142.567         143.000    
          143.342         143.597         143.777       -1.000000E+30   -1.000000E+30   -1.000000E+30   -1.000000E+30   -1.000000E+30   -1.000000E+30   -1.000000E+30
        -1.000000E+30   -1.000000E+30   -1.000000E+30   -1.000000E+30   -1.000000E+30     143.997         144.335         144.650         144.943         145.214    
          145.464         145.671         145.825         145.945         146.036         146.095         146.120         146.111         146.069         145.995    
          145.882         145.726         145.520         145.259         144.937         144.564         144.150         143.695         143.196         142.659    
          141.960         140.971         139.645         138.242         138.729         138.757         138.386         139.248         139.849         140.277    
          140.575         140.764         140.867         140.899         140.914         140.916         140.808         140.668         140.455         140.363    
          140.040         140.045         140.801         140.186         140.886         141.553         142.152         142.627         143.010         143.306    
          143.519       -1.000000E+30   -1.000000E+30   -1.000000E+30   -1.000000E+30   -1.000000E+30   -1.000000E+30   -1.000000E+30   -1.000000E+30   -1.000000E+30
        -1.000000E+30   -1.000000E+30   -1.000000E+30   -1.000000E+30     144.018         144.367         144.696         145.008         145.289         145.528    
          145.714         145.864         145.984         146.073         146.128         146.148         146.133         146.081         145.987         145.844    
          145.651         145.396         145.065         144.688         144.292         143.868         143.411         142.932         142.342         141.545    
          140.571         139.493         138.890         139.965         139.555         138.654         139.092         139.089         138.908         139.532    
          139.951         140.179         140.264         140.245         140.330         140.284         139.938         139.770         140.191         140.144    
          139.386         139.310         140.137         140.151         139.318         139.399         140.128         140.097         139.495         139.558    
          139.925         139.923         139.884         140.431         141.004         141.740         142.256         142.669         142.990         143.224    
        -1.000000E+30   -1.000000E+30   -1.000000E+30   -1.000000E+30   -1.000000E+30   -1.000000E+30   -1.000000E+30   -1.000000E+30   -1.000000E+30   -1.000000E+30
        -1.000000E+30   -1.000000E+30   -1.000000E+30   -1.000000E+30     144.006         144.397         144.746         145.063         145.339         145.565    
          145.749         145.900         146.019         146.103         146.152         146.164         146.136         146.060         145.930         145.752    
          145.516         145.140         144.734         144.371         143.983         143.559         143.110         142.635         142.017         141.284    
          140.507         139.686         139.285         140.087         139.797         139.109         139.344         139.420         139.175         139.557    
          139.674         139.765         139.731         139.367         139.215         139.676         139.462         139.203         139.312         139.267    
          139.296         139.660         139.800         140.003         140.278         140.553         140.958         141.482         141.964         142.350    
          142.692         142.926       -1.000000E+30   -1.000000E+30   -1.000000E+30   -1.000000E+30   -1.000000E+30   -1.000000E+30   -1.000000E+30   -1.000000E+30
        -1.000000E+30   -1.000000E+30   -1.000000E+30   -1.000000E+30   -1.000000E+30     144.026         144.440         144.795         145.108         145.374    
          145.596         145.783         145.933         146.046         146.123         146.164         146.163         146.109         145.981         145.830    
          145.691       -1.000000E+30     144.620         144.377         144.035         143.636         143.196         142.813         142.329         141.749    
          141.166         140.575         139.898         139.509         140.268         140.065         139.134         139.126         139.877         139.805    
          139.136         139.164         139.754         139.766         139.294         139.606         139.823         139.925         139.986         140.336    
          140.667         140.934         141.193         141.473         141.812         142.131         142.352       -1.000000E+30   -1.000000E+30   -1.000000E+30
        -1.000000E+30   -1.000000E+30   -1.000000E+30   -1.000000E+30   -1.000000E+30   -1.000000E+30   -1.000000E+30   -1.000000E+30   -1.000000E+30   -1.000000E+30
          144.083         144.486         144.839         145.147         145.410         145.632         145.813         145.953         146.058         146.133    
          146.171         146.162       -1.000000E+30   -1.000000E+30   -1.000000E+30   -1.000000E+30   -1.000000E+30   -1.000000E+30   -1.000000E+30   -1.000000E+30
          143.109         142.841         142.455         142.031         141.571         141.128         140.719         140.452         140.345         140.386    
          140.561         140.809         141.058         141.295         141.522         141.744         141.989         142.228         142.385       -1.000000E+30
        -1.000000E+30   -1.000000E+30   -1.000000E+30   -1.000000E+30   -1.000000E+30   -1.000000E+30   -1.000000E+30   -1.000000E+30   -1.000000E+30   -1.000000E+30
          144.121         144.518         144.874         145.184         145.447         145.656         145.820         145.948         146.069       -1.000000E+30
        -1.000000E+30   -1.000000E+30   -1.000000E+30   -1.000000E+30   -1.000000E+30   -1.000000E+30   -1.000000E+30   -1.000000E+30   -1.000000E+30   -1.000000E+30
        -1.000000E+30     142.409         142.138         141.778         141.403         141.064         140.828         140.722         140.742         140.868    
          141.062         141.273         141.486         141.678         141.818       -1.000000E+30   -1.000000E+30   -1.000000E+30   -1.000000E+30   -1.000000E+30
        -1.000000E+30   -1.000000E+30   -1.000000E+30   -1.000000E+30   -1.000000E+30   -1.000000E+30   -1.000000E+30     144.112         144.540         144.911    
          145.222         145.458         145.636         145.767       -1.000000E+30   -1.000000E+30   -1.000000E+30   -1.000000E+30   -1.000000E+30   -1.000000E+30
        -1.000000E+30   -1.000000E+30   -1.000000E+30   -1.000000E+30   -1.000000E+30   -1.000000E+30   -1.000000E+30   -1.000000E+30   -1.000000E+30   -1.000000E+30
        -1.000000E+30   -1.000000E+30   -1.000000E+30   -1.000000E+30   -1.000000E+30   -1.000000E+30   -1.000000E+30   -1.000000E+30   -1.000000E+30   -1.000000E+30
        -1.000000E+30   -1.000000E+30   -1.000000E+30   -1.000000E+30   -1.000000E+30   -1.000000E+30   -1.000000E+30   -1.000000E+30   -1.000000E+30   -1.000000E+30
          144.106         144.585         144.970         145.217         145.402         145.623       -1.000000E+30   -1.000000E+30   -1.000000E+30   -1.000000E+30
        -1.000000E+30   -1.000000E+30   -1.000000E+30   -1.000000E+30   -1.000000E+30   -1.000000E+30   -1.000000E+30   -1.000000E+30   -1.000000E+30   -1.000000E+30
        -1.000000E+30   -1.000000E+30   -1.000000E+30   -1.000000E+30   -1.000000E+30   -1.000000E+30   -1.000000E+30   -1.000000E+30   -1.000000E+30   -1.000000E+30
        -1.000000E+30   -1.000000E+30   -1.000000E+30   -1.000000E+30   -1.000000E+30   -1.000000E+30     144.198         144.733         144.913         145.009    
        -1.000000E+30   -1.000000E+30   -1.000000E+30   -1.000000E+30   -1.000000E+30   -1.000000E+30   -1.000000E+30   -1.000000E+30   -1.000000E+30   -1.000000E+30
        -1.000000E+30   -1.000000E+30     144.711         144.527         144.516       -1.000000E+30   -1.000000E+30   -1.000000E+30   -1.000000E+30   -1.000000E+30
        -1.000000E+30   -1.000000E+30   -1.000000E+30   -1.000000E+30   -1.000000E+30     143.713         143.721       -1.000000E+30   -1.000000E+30   -1.000000E+30
        -1.000000E+30   -1.000000E+30   -1.000000E+30   -1.000000E+30   -1.000000E+30
1
  HEAD IN LAYER   2 AT END OF TIME STEP   1 IN STRESS PERIOD    2
  ---------------------------------------------------------------------------

                1               2               3               4               5               6               7               8               9              10
               11              12              13              14              15              16              17              18              19              20
               21              22              23              24              25              26              27              28              29              30
               31              32              33              34              35              36              37              38              39              40
               41              42              43              44              45              46              47              48              49              50
               51              52              53              54              55              56              57              58              59              60
               61              62              63              64              65              66              67              68              69              70
               71              72              73              74              75              76              77              78              79              80
               81              82              83              84              85              86              87              88              89              90
               91              92              93              94              95              96              97              98              99             100
              101             102             103             104             105             106             107             108             109             110
              111             112             113             114             115             116             117             118             119             120
              121             122             123             124             125             126             127             128             129             130
              131             132             133             134             135             136             137             138             139             140
              141             142             143             144             145             146             147             148             149             150
              151             152             153             154             155             156             157             158             159             160
              161             162             163             164             165             166             167             168             169             170
              171             172             173             174             175             176             177             178             179             180
              181             182             183             184             185             186             187             188             189             190
              191             192             193             194             195             196             197             198             199             200
              201             202             203             204             205             206             207             208             209             210
              211             212             213             214             215             216             217             218             219             220
              221             222             223             224             225             226             227             228             229             230
              231             232             233             234             235             236             237             238             239             240
              241             242             243             244             245             246             247             248             249             250
              251             252             253             254             255             256             257             258             259             260
              261             262             263             264             265             266             267             268             269             270
              271             272             273             274             275             276             277             278             279             280
              281             282             283             284             285             286             287             288             289             290
              291             292             293             294             295             296             297             298             299             300
              301             302             303             304             305             306             307             308             309             310
              311             312             313             314             315             316             317             318             319             320
              321             322             323             324             325             326             327             328             329             330
              331             332             333             334             335             336             337             338             339             340
              341             342             343             344             345             346             347             348             349             350
              351             352             353             354             355             356             357             358             359             360
              361             362             363             364             365             366             367             368             369             370
              371             372             373             374             375             376             377             378             379             380
              381             382             383             384             385             386             387             388             389             390
              391             392             393             394             395             396             397             398             399             400
              401             402             403             404             405             406             407             408             409             410
              411             412             413             414             415             416             417             418             419             420
              421             422             423             424             425             426             427             428             429             430
              431             432             433             434             435             436             437             438             439             440
              441             442             443             444             445             446             447             448             449             450
              451             452             453             454             455             456             457             458             459             460
              461             462             463             464             465             466             467             468             469             470
              471             472             473             474             475             476             477             478             479             480
              481             482             483             484             485             486             487             488             489             490
              491             492             493             494             495             496             497             498             499             500
              501             502             503             504             505             506             507             508             509             510
              511             512             513             514             515             516             517             518             519             520
              521             522             523             524             525             526             527             528             529             530
              531             532             533             534             535             536             537             538             539             540
              541             542             543             544             545             546             547             548             549             550
              551             552             553             554             555             556             557             558             559             560
              561             562             563             564             565             566             567             568             569             570
              571             572             573             574             575             576             577             578             579             580
              581             582             583             584             585             586             587             588             589             590
              591             592             593             594             595             596             597             598             599             600
              601             602             603             604             605             606             607             608             609             610
              611             612             613             614             615             616             617             618             619             620
              621             622             623             624             625             626             627             628             629             630
              631             632             633             634             635             636             637             638             639             640
              641             642             643             644             645             646             647             648             649             650
              651             652             653             654             655             656             657             658             659             660
              661             662             663             664             665             666             667             668             669             670
              671             672             673             674             675             676             677             678             679             680
              681             682             683             684             685             686             687             688             689             690
              691             692             693             694             695             696             697             698             699             700
              701             702             703             704             705             706             707             708             709             710
              711             712             713             714             715             716             717             718             719             720
              721             722             723             724             725             726             727             728             729             730
              731             732             733             734             735             736             737             738             739             740
              741             742             743             744             745             746             747             748             749             750
              751             752             753             754             755             756             757             758             759             760
              761             762             763             764             765             766             767             768             769             770
              771             772             773             774             775             776             777             778             779             780
              781             782             783             784             785             786             787             788             789             790
              791             792             793             794             795             796             797             798             799             800
              801             802             803             804             805             806             807             808             809             810
              811             812             813             814             815             816             817             818             819             820
              821             822             823             824             825             826             827             828             829             830
              831             832             833             834             835             836             837             838             839             840
              841             842             843             844             845             846             847             848             849             850
              851             852             853             854             855             856             857             858             859             860
              861             862             863             864             865             866             867             868             869             870
              871             872             873             874             875             876             877             878             879             880
              881             882             883             884             885             886             887             888             889             890
              891             892             893             894             895             896             897             898             899             900
              901             902             903             904             905             906             907             908             909             910
              911             912             913             914             915             916             917             918             919             920
              921             922             923             924             925             926             927             928             929             930
              931             932             933             934             935             936             937             938             939             940
              941             942             943             944             945             946             947             948             949             950
              951             952             953             954             955             956             957             958             959             960
              961             962             963             964             965             966             967             968             969             970
              971             972             973             974             975             976             977             978             979             980
              981             982             983             984             985             986             987             988             989             990
              991             992             993             994             995             996             997             998             999            1000
             1001            1002            1003            1004            1005            1006            1007            1008            1009            1010
             1011            1012            1013            1014            1015            1016            1017            1018            1019            1020
             1021            1022            1023            1024            1025            1026            1027            1028            1029            1030
             1031            1032            1033            1034            1035            1036            1037            1038            1039            1040
             1041            1042            1043            1044            1045            1046            1047            1048            1049            1050
             1051            1052            1053            1054            1055            1056            1057            1058            1059            1060
             1061            1062            1063            1064            1065            1066            1067            1068            1069            1070
             1071            1072            1073            1074            1075            1076            1077            1078            1079            1080
             1081            1082            1083            1084            1085            1086            1087            1088            1089            1090
             1091            1092            1093            1094            1095            1096            1097            1098            1099            1100
             1101            1102            1103            1104            1105            1106            1107            1108            1109            1110
             1111            1112            1113            1114            1115            1116            1117            1118            1119            1120
             1121            1122            1123            1124            1125            1126            1127            1128            1129            1130
             1131            1132            1133            1134            1135            1136            1137            1138            1139            1140
             1141            1142            1143            1144            1145            1146            1147            1148            1149            1150
             1151            1152            1153            1154            1155            1156            1157            1158            1159            1160
             1161            1162            1163            1164            1165            1166            1167            1168            1169            1170
             1171            1172            1173            1174            1175            1176            1177            1178            1179            1180
             1181            1182            1183            1184            1185            1186            1187            1188            1189            1190
             1191            1192            1193            1194            1195            1196            1197            1198            1199            1200
             1201            1202            1203            1204            1205            1206            1207            1208            1209            1210
             1211            1212            1213            1214            1215            1216            1217            1218            1219            1220
             1221            1222            1223            1224            1225            1226            1227            1228            1229            1230
             1231            1232            1233            1234            1235            1236            1237            1238            1239            1240
             1241            1242            1243            1244            1245            1246            1247            1248            1249            1250
             1251            1252            1253            1254            1255            1256            1257            1258            1259            1260
             1261            1262            1263            1264            1265            1266            1267            1268            1269            1270
             1271            1272            1273            1274            1275            1276            1277            1278            1279            1280
             1281            1282            1283            1284            1285            1286            1287            1288            1289            1290
             1291            1292            1293            1294            1295            1296            1297            1298            1299            1300
             1301            1302            1303            1304            1305            1306            1307            1308            1309            1310
             1311            1312            1313            1314            1315            1316            1317            1318            1319            1320
             1321            1322            1323            1324            1325            1326            1327            1328            1329            1330
             1331            1332            1333            1334            1335            1336            1337            1338            1339            1340
             1341            1342            1343            1344            1345            1346            1347            1348            1349            1350
             1351            1352            1353            1354            1355            1356            1357            1358            1359            1360
             1361            1362            1363            1364            1365            1366            1367            1368            1369            1370
             1371            1372            1373            1374            1375            1376            1377            1378            1379            1380
             1381            1382            1383            1384            1385            1386            1387            1388            1389            1390
             1391            1392            1393            1394            1395            1396            1397            1398            1399            1400
             1401            1402            1403            1404            1405            1406            1407            1408            1409            1410
             1411            1412            1413            1414            1415            1416            1417            1418            1419            1420
             1421            1422            1423            1424            1425            1426            1427            1428            1429            1430
             1431            1432            1433            1434            1435            1436            1437            1438            1439            1440
             1441            1442            1443            1444            1445            1446            1447            1448            1449            1450
             1451            1452            1453            1454            1455            1456            1457            1458            1459            1460
             1461            1462            1463            1464            1465            1466            1467            1468            1469            1470
             1471            1472            1473            1474            1475            1476            1477            1478            1479            1480
             1481            1482            1483            1484            1485            1486            1487            1488            1489            1490
             1491            1492            1493            1494            1495            1496            1497            1498            1499            1500
             1501            1502            1503            1504            1505            1506            1507            1508            1509            1510
             1511            1512            1513            1514            1515            1516            1517            1518            1519            1520
             1521            1522            1523            1524            1525            1526            1527            1528            1529            1530
             1531            1532            1533            1534            1535            1536            1537            1538            1539            1540
             1541            1542            1543            1544            1545            1546            1547            1548            1549            1550
             1551            1552            1553            1554            1555            1556            1557            1558            1559            1560
             1561            1562            1563            1564            1565            1566            1567            1568            1569            1570
             1571            1572            1573            1574            1575            1576            1577            1578            1579            1580
             1581            1582            1583            1584            1585            1586            1587            1588            1589            1590
             1591            1592            1593            1594            1595            1596            1597            1598            1599            1600
             1601            1602            1603            1604            1605            1606            1607            1608            1609            1610
             1611            1612            1613            1614            1615            1616            1617            1618            1619            1620
             1621            1622            1623            1624            1625            1626            1627            1628            1629            1630
             1631            1632            1633            1634            1635            1636            1637            1638            1639            1640
             1641            1642            1643            1644            1645            1646            1647            1648            1649            1650
             1651            1652            1653            1654            1655            1656            1657            1658            1659            1660
             1661            1662            1663            1664            1665            1666            1667            1668            1669            1670
             1671            1672            1673            1674            1675            1676            1677            1678            1679            1680
             1681            1682            1683            1684            1685            1686            1687            1688            1689            1690
             1691            1692            1693            1694            1695            1696            1697            1698            1699            1700
             1701            1702            1703            1704            1705            1706            1707            1708            1709            1710
             1711            1712            1713            1714            1715            1716            1717            1718            1719            1720
             1721            1722            1723            1724            1725            1726            1727            1728            1729            1730
             1731            1732            1733            1734            1735            1736            1737            1738            1739            1740
             1741            1742            1743            1744            1745            1746            1747            1748            1749            1750
             1751            1752            1753            1754            1755            1756            1757            1758            1759            1760
             1761            1762            1763            1764            1765            1766            1767            1768            1769            1770
             1771            1772            1773            1774            1775            1776            1777            1778            1779            1780
             1781            1782            1783            1784            1785            1786            1787            1788            1789            1790
             1791            1792            1793            1794            1795            1796            1797            1798            1799            1800
             1801            1802            1803            1804            1805            1806            1807            1808            1809            1810
             1811            1812            1813            1814            1815            1816            1817            1818            1819            1820
             1821            1822            1823            1824            1825            1826            1827            1828            1829            1830
             1831            1832            1833            1834            1835            1836            1837            1838            1839            1840
             1841            1842            1843            1844            1845            1846            1847            1848            1849            1850
             1851            1852            1853            1854            1855            1856            1857            1858            1859            1860
             1861            1862            1863            1864            1865            1866            1867            1868            1869            1870
             1871            1872            1873            1874            1875            1876            1877            1878            1879            1880
             1881            1882            1883            1884            1885            1886            1887            1888            1889            1890
             1891            1892            1893            1894            1895            1896            1897            1898            1899            1900
             1901            1902            1903            1904            1905            1906            1907            1908            1909            1910
             1911            1912            1913            1914            1915            1916            1917            1918            1919            1920
             1921            1922            1923            1924            1925            1926            1927            1928            1929            1930
             1931            1932            1933            1934            1935            1936            1937            1938            1939            1940
             1941            1942            1943            1944            1945            1946            1947            1948            1949            1950
             1951            1952            1953            1954            1955            1956            1957            1958            1959            1960
             1961            1962            1963            1964            1965            1966            1967            1968            1969            1970
             1971            1972            1973            1974            1975            1976            1977            1978            1979            1980
             1981            1982            1983            1984            1985            1986            1987            1988            1989            1990
             1991            1992            1993            1994            1995            1996            1997            1998            1999            2000
             2001            2002            2003            2004            2005            2006            2007            2008            2009            2010
             2011            2012            2013            2014            2015            2016            2017            2018            2019            2020
             2021            2022            2023            2024            2025            2026            2027            2028            2029            2030
             2031            2032            2033            2034            2035            2036            2037            2038            2039            2040
             2041            2042            2043            2044            2045            2046            2047            2048            2049            2050
             2051            2052            2053            2054            2055            2056            2057            2058            2059            2060
             2061            2062            2063            2064            2065            2066            2067            2068            2069            2070
             2071            2072            2073            2074            2075            2076            2077            2078            2079            2080
             2081            2082            2083            2084            2085            2086            2087            2088            2089            2090
             2091            2092            2093            2094            2095            2096            2097            2098            2099            2100
             2101            2102            2103            2104            2105            2106            2107            2108            2109            2110
             2111            2112            2113            2114            2115            2116            2117            2118            2119            2120
             2121            2122            2123            2124            2125            2126            2127            2128            2129            2130
             2131            2132            2133            2134            2135            2136            2137            2138            2139            2140
             2141            2142            2143            2144            2145            2146            2147            2148            2149            2150
             2151            2152            2153            2154            2155            2156            2157            2158            2159            2160
             2161            2162            2163            2164            2165            2166            2167            2168            2169            2170
             2171            2172            2173            2174            2175            2176            2177            2178            2179            2180
             2181            2182            2183            2184            2185            2186            2187            2188            2189            2190
             2191            2192            2193            2194            2195            2196            2197            2198            2199            2200
             2201            2202            2203            2204            2205            2206            2207            2208            2209            2210
             2211            2212            2213            2214            2215            2216            2217            2218            2219            2220
             2221            2222            2223            2224            2225            2226            2227            2228            2229            2230
             2231            2232            2233            2234            2235            2236            2237            2238            2239            2240
             2241            2242            2243            2244            2245            2246            2247            2248            2249            2250
             2251            2252            2253            2254            2255            2256            2257            2258            2259            2260
             2261            2262            2263            2264            2265            2266            2267            2268            2269            2270
             2271            2272            2273            2274            2275            2276            2277            2278            2279            2280
             2281            2282            2283            2284            2285            2286            2287            2288            2289            2290
             2291            2292            2293            2294            2295            2296            2297            2298            2299            2300
             2301            2302            2303            2304            2305            2306            2307            2308            2309            2310
             2311            2312            2313            2314            2315            2316            2317            2318            2319            2320
             2321            2322            2323            2324            2325            2326            2327            2328            2329            2330
             2331            2332            2333            2334            2335            2336            2337            2338            2339            2340
             2341            2342            2343            2344            2345            2346            2347            2348            2349            2350
             2351            2352            2353            2354            2355            2356            2357            2358            2359            2360
             2361            2362            2363            2364            2365            2366            2367            2368            2369            2370
             2371            2372            2373            2374            2375            2376            2377            2378            2379            2380
             2381            2382            2383            2384            2385            2386            2387            2388            2389            2390
             2391            2392            2393            2394            2395            2396            2397            2398            2399            2400
             2401            2402            2403            2404            2405            2406            2407            2408            2409            2410
             2411            2412            2413            2414            2415            2416            2417            2418            2419            2420
             2421            2422            2423            2424            2425            2426            2427            2428            2429            2430
             2431            2432            2433            2434            2435            2436            2437            2438            2439            2440
             2441            2442            2443            2444            2445            2446            2447            2448            2449            2450
             2451            2452            2453            2454            2455            2456            2457            2458            2459            2460
             2461            2462            2463            2464            2465            2466            2467            2468            2469            2470
             2471            2472            2473            2474            2475            2476            2477            2478            2479            2480
             2481            2482            2483            2484            2485            2486            2487            2488            2489            2490
             2491            2492            2493            2494            2495            2496            2497            2498            2499            2500
             2501            2502            2503            2504            2505            2506            2507            2508            2509            2510
             2511            2512            2513            2514            2515            2516            2517            2518            2519            2520
             2521            2522            2523            2524            2525            2526            2527            2528            2529            2530
             2531            2532            2533            2534            2535            2536            2537            2538            2539            2540
             2541            2542            2543            2544            2545            2546            2547            2548            2549            2550
             2551            2552            2553            2554            2555            2556            2557            2558            2559            2560
             2561            2562            2563            2564            2565            2566            2567            2568            2569            2570
             2571            2572            2573            2574            2575            2576            2577            2578            2579            2580
             2581            2582            2583            2584            2585            2586            2587            2588            2589            2590
             2591            2592            2593            2594            2595            2596            2597            2598            2599            2600
             2601            2602            2603            2604            2605            2606            2607            2608            2609            2610
             2611            2612            2613            2614            2615            2616            2617            2618            2619            2620
             2621            2622            2623            2624            2625            2626            2627            2628            2629            2630
             2631            2632            2633            2634            2635            2636            2637            2638            2639            2640
             2641            2642            2643            2644            2645            2646            2647            2648            2649            2650
             2651            2652            2653            2654            2655            2656            2657            2658            2659            2660
             2661            2662            2663            2664            2665            2666            2667            2668            2669            2670
             2671            2672            2673            2674            2675            2676            2677            2678            2679            2680
             2681            2682            2683            2684            2685            2686            2687            2688            2689            2690
             2691            2692            2693            2694            2695            2696            2697            2698            2699            2700
             2701            2702            2703            2704            2705            2706            2707            2708            2709            2710
             2711            2712            2713            2714            2715            2716            2717            2718            2719            2720
             2721            2722            2723            2724            2725            2726            2727            2728            2729            2730
             2731            2732            2733            2734            2735            2736            2737            2738            2739            2740
             2741            2742            2743            2744            2745            2746            2747            2748            2749            2750
             2751            2752            2753            2754            2755            2756            2757            2758            2759            2760
             2761            2762            2763            2764            2765            2766            2767            2768            2769            2770
             2771            2772            2773            2774            2775            2776            2777            2778            2779            2780
             2781            2782            2783            2784            2785            2786            2787            2788            2789            2790
             2791            2792            2793            2794            2795            2796            2797            2798            2799            2800
             2801            2802            2803            2804            2805            2806            2807            2808            2809            2810
             2811            2812            2813            2814            2815            2816            2817            2818            2819            2820
             2821            2822            2823            2824            2825            2826            2827            2828            2829            2830
             2831            2832            2833            2834            2835            2836            2837            2838            2839            2840
             2841            2842            2843            2844            2845            2846            2847            2848            2849            2850
             2851            2852            2853            2854            2855            2856            2857            2858            2859            2860
             2861            2862            2863            2864            2865            2866            2867            2868            2869            2870
             2871            2872            2873            2874            2875            2876            2877            2878            2879            2880
             2881            2882            2883            2884            2885            2886            2887            2888            2889            2890
             2891            2892            2893            2894            2895            2896            2897            2898            2899            2900
             2901            2902            2903            2904            2905            2906            2907            2908            2909            2910
             2911            2912            2913            2914            2915            2916            2917            2918            2919            2920
             2921            2922            2923            2924            2925            2926            2927            2928            2929            2930
             2931            2932            2933            2934            2935            2936            2937            2938            2939            2940
             2941            2942            2943            2944            2945            2946            2947            2948            2949            2950
             2951            2952            2953            2954            2955            2956            2957            2958            2959            2960
             2961            2962            2963            2964            2965            2966            2967            2968            2969            2970
             2971            2972            2973            2974            2975            2976            2977            2978            2979            2980
             2981            2982            2983            2984            2985            2986            2987            2988            2989            2990
             2991            2992            2993            2994            2995            2996            2997            2998            2999            3000
             3001            3002            3003            3004            3005            3006            3007            3008            3009            3010
             3011            3012            3013            3014            3015            3016            3017            3018            3019            3020
             3021            3022            3023            3024            3025            3026            3027            3028            3029            3030
             3031            3032            3033            3034            3035            3036            3037            3038            3039            3040
             3041            3042            3043            3044            3045            3046            3047            3048            3049            3050
             3051            3052            3053            3054            3055            3056            3057            3058            3059            3060
             3061            3062            3063            3064            3065            3066            3067            3068            3069            3070
             3071            3072            3073            3074            3075            3076            3077            3078            3079            3080
             3081            3082            3083            3084            3085            3086            3087            3088            3089            3090
             3091            3092            3093            3094            3095            3096            3097            3098            3099            3100
             3101            3102            3103            3104            3105            3106            3107            3108            3109            3110
             3111            3112            3113            3114            3115            3116            3117            3118            3119            3120
             3121            3122            3123            3124            3125            3126            3127            3128            3129            3130
             3131            3132            3133            3134            3135
 ................................................................................................................................................................
   1      138.477         138.220         137.795         137.252         136.786         136.535         136.830         136.573         136.269         136.100    
          136.085         136.164         136.297         136.458         136.632         136.811         136.989         137.163         137.322         137.459    
          137.573         137.663         137.721         139.124         138.811         138.478         138.046         137.513         136.978         136.693    
          137.130         136.900         136.448         136.313         136.623         136.415         136.191         136.151         136.221         136.356    
          136.525         136.710         136.900         137.085         137.259         137.417         137.556         137.677         137.779         137.866    
          137.965         139.638         139.417         139.153         138.834         138.430         137.943         137.390         136.868         136.617    
          137.079         136.879         136.409         136.308         136.618         136.469         136.250         136.234         136.352         136.298    
          136.282         136.399         136.569         136.762         136.962         137.158         137.342         137.506         137.653         137.784    
          137.899         138.002         138.098         138.193         140.096         139.922         139.742         139.518         139.234         138.876    
          138.446         137.959         137.439         136.925         136.506         136.395         136.672         136.549         136.357         136.356    
          136.450         136.413         136.427         136.571         136.760         136.966         137.172         137.367         137.544         137.705    
          137.852         137.985         138.106         138.216         138.316         138.413         140.479         140.350         140.228         140.085    
          139.897         139.653         139.343         138.970         138.541         138.065         137.554         137.022         136.605         136.504    
          136.774         136.657         136.479         136.484         136.567         136.535         136.561         136.719         136.917         137.124    
          137.326         137.516         137.694         137.863         138.021         138.168         138.303         138.425         138.537         138.648    
          140.774         140.691         140.621         140.540         140.430         140.278         140.073         139.809         139.488         139.114    
          138.686         138.207         137.682         137.143         136.724         136.624         136.901         136.783         136.597         136.602    
          136.685         136.652         136.686         136.848         137.035         137.229         137.425         137.618         137.811         137.999    
          138.181         138.350         138.507         138.652         138.787         138.922         140.978         140.939         140.916         140.889    
          140.843         140.765         140.646         140.478         140.257         139.984         139.662         139.286         138.853         138.366    
          137.835         137.295         136.865         136.755         137.066         136.948         136.733         136.740         136.849         136.813    
          136.824         136.950         137.103         137.286         137.485         137.697         137.919         138.141         138.355         138.555    
          138.742         138.919         139.089         139.261         141.099         141.095         141.114         141.137         141.147         141.132    
          141.084         140.996         140.863         140.682         140.453         140.178         139.854         139.475         139.041         138.557    
          138.035         137.514         137.074         136.959         137.327         137.217         136.928         136.910         137.108         137.027    
          136.947         137.000         137.135         137.317         137.534         137.785         138.051         138.314         138.564         138.802    
          139.028         139.247         139.469         139.703         141.029         141.119         141.202         141.281         141.347         141.391    
          141.406         141.386         141.328         141.228         141.084         140.895         140.663         140.386         140.060         139.682    
          139.257         138.791         138.309         137.850         137.430         137.275         137.712         137.596         137.163         137.089    
          137.433         137.330         137.043         137.031         137.205         137.142         137.059         137.086         137.098         137.095    
          137.166         137.347         137.612         137.919         138.230         138.533         138.823         139.102         139.376         139.659    
          139.971         140.386         140.734         141.043         141.328         141.600         141.860         142.109         142.349         142.583    
          142.812         143.037         143.258         143.473         143.682         143.886         144.083         144.275         144.458         144.624    
          144.772         144.892         144.977         145.019         145.012         144.961         144.948         145.059         145.403         146.218    
          146.773         147.191         147.520         147.779         147.990         148.160         148.257         141.078         141.187         141.318    
          141.442         141.546         141.621         141.664         141.671         141.641         141.571         141.461         141.309         141.116    
          140.880         140.600         140.276         139.907         139.501         139.070         138.638         138.229         137.865         137.531    
          137.240         137.155         137.407         137.323         137.130         137.135         137.209         137.175         137.189         137.253    
          137.166         137.212         137.425         137.762         138.114         138.462         138.802         139.132         139.457         139.785    
          140.119         140.470         140.802         141.110         141.396         141.670         141.932         142.186         142.432         142.673    
          142.909         143.144         143.376         143.603         143.826         144.045         144.257         144.462         144.655         144.834    
          144.997         145.132         145.239         145.314         145.371         145.451         145.543         145.717         146.029         146.500    
          146.935         147.305         147.614         147.864         148.070         148.240         148.349         148.428         141.157         141.281    
          141.441         141.599         141.735         141.840         141.909         141.941         141.936         141.894         141.812         141.693    
          141.535         141.336         141.097         140.819         140.502         140.146         139.763         139.364         138.961         138.562    
          138.164         137.781         137.460         137.248         137.209         137.360         137.284         137.311         137.611         137.977    
          138.357         138.737         139.113         139.486         139.854         140.208         140.551         140.881         141.189         141.477    
          141.754         142.020         142.279         142.533         142.783         143.030         143.279         143.526         143.769         144.010    
          144.248         144.480         144.704         144.916         145.116         145.299         145.458         145.592         145.703         145.801    
          145.912         146.043         146.232         146.499         146.837         147.184         147.505         147.795         148.038         148.242    
          148.392         148.472         148.513         148.565         141.252         141.388         141.570         141.753         141.915         142.046    
          142.142         142.197         142.215         142.195         142.139         142.048         141.920         141.755         141.552         141.311    
          141.038         140.727         140.385         140.019         139.634         139.231         138.814         138.387         137.972         137.590    
          137.445         137.770         137.648         137.359         137.343         137.503         137.425         137.498         137.833         138.222    
          138.630         139.046         139.463         139.872         140.251         140.604         140.940         141.251         141.543         141.823    
          142.092         142.357         142.618         142.878         143.138         143.400         143.663         143.924         144.185         144.443    
          144.697         144.943         145.177         145.401         145.608         145.793         145.955         146.096         146.223         146.346    
          146.483         146.670         146.908         147.184         147.476         147.768         148.056         148.307         148.545         148.633    
          148.636         148.630         148.634         148.645         141.356         141.501         141.700         141.903         142.088         142.242    
          142.360         142.439         142.477         142.478         142.444         142.377         142.276         142.140         141.968         141.762    
          141.523         141.250         140.944         140.608         140.244         139.852         139.433         138.992         138.536         138.084    
          137.703         137.562         137.863         137.740         137.502         137.527         137.606         137.574         137.711         138.067    
          138.483         138.929         139.390         139.841         140.248         140.618         140.963         141.281         141.577         141.859    
          142.131         142.399         142.669         142.938         143.210         143.486         143.764         144.044         144.325         144.605    
          144.881         145.150         145.407         145.655         145.888         146.097         146.285         146.455         146.613         146.761    
          146.880         147.062         147.295         147.530         147.788         148.076         148.390         148.670         149.111         149.003    
          148.863         148.771         148.706         148.664         148.637         141.462         141.616         141.827         142.047         142.251    
          142.425         142.563         142.662         142.722         142.743         142.730         142.683         142.604         142.493         142.349    
          142.172         141.964         141.723         141.448         141.140         140.799         140.424         140.014         139.573         139.105    
          138.622         138.150         137.780         137.666         137.923         137.814         137.661         137.710         137.714         137.723    
          137.904         138.297         138.764         139.269         139.759         140.198         140.588         140.945         141.269         141.569    
          141.852         142.124         142.396         142.671         142.948         143.231         143.521         143.815         144.115         144.417    
          144.720         145.019         145.310         145.591         145.863         146.120         146.353         146.564         146.757         146.933    
          147.090         147.224         147.420         147.702         147.870         148.109         148.409         148.806         149.028         149.434    
          149.445         149.099         148.897         148.766         148.677         148.619         148.575         141.566         141.727         141.949    
          142.183         142.402         142.593         142.748         142.866         142.946         142.988         142.994         142.964         142.905    
          142.814         142.694         142.543         142.362         142.149         141.901         141.620         141.303         140.948         140.555    
          140.125         139.661         139.168         138.664         138.185         137.843         137.753         137.952         137.849         137.772    
          137.844         137.767         137.815         138.074         138.545         139.093         139.631         140.104         140.514         140.881    
          141.211         141.513         141.795         142.067         142.340         142.617         142.900         143.193         143.497         143.809    
          144.129         144.455         144.781         145.104         145.419         145.722         146.018         146.298         146.554         146.787    
          147.002         147.196         147.367         147.518         147.712         147.942         148.161         148.410         148.705         149.029    
          149.402         149.623         149.583         149.212         148.963         148.793         148.674         148.592         148.534         148.490    
          141.667         141.832         142.063         142.309         142.541         142.745         142.915         143.050         143.147         143.209    
          143.233         143.222         143.179         143.107         143.007         142.879         142.722         142.533         142.311         142.055    
          141.762         141.429         141.057         140.646         140.193         139.704         139.188         138.665         138.170         137.837    
          137.792         137.922         137.841         137.874         137.988         137.831         137.933         138.285         138.863         139.455    
          139.967         140.398         140.772         141.105         141.407         141.687         141.954         142.223         142.500         142.787    
          143.089         143.407         143.739         144.083         144.434         144.786         145.134         145.473         145.800         146.119    
          146.420         146.697         146.953         147.191         147.409         147.607         147.787         147.995         148.221         148.455    
          148.716         149.069         149.354         149.592         149.680         149.592         149.229         148.967         148.779         148.644    
          148.549         148.487         148.453         141.761         141.930         142.167         142.421         142.663         142.879         143.062    
          143.212         143.326         143.404         143.448         143.455         143.429         143.374         143.292         143.183         143.047    
          142.882         142.684         142.451         142.181         141.871         141.521         141.131         140.698         140.223         139.709    
          139.172         138.630         138.123         137.855         137.871         137.915         137.882         138.027         138.209         137.956    
          138.147         138.608         139.238         139.792         140.244         140.622         140.952         141.249         141.524         141.784    
          142.043         142.312         142.601         142.912         143.247         143.602         143.972         144.353         144.735         145.111    
          145.476         145.827         146.166         146.488         146.786         147.064         147.325         147.571         147.810         148.052    
          148.291         148.526         148.760         148.996         149.243         149.469         149.622         149.643         149.526         149.177    
          148.918         148.726         148.585         148.486         148.422         148.391         141.847         142.019         142.261         142.519    
          142.768         142.993         143.188         143.351         143.480         143.575         143.636         143.662         143.655         143.617    
          143.552         143.462         143.344         143.199         143.023         142.814         142.568         142.282         141.954         141.586    
          141.174         140.718         140.216         139.679         139.119         138.563         138.084         137.948         138.071         137.962    
          138.042         138.390         139.002         139.583         140.052         140.433         140.756         141.041         141.302         141.549    
          141.794         142.051         142.336         142.657         143.012         143.395         143.798         144.212         144.628         145.036    
          145.432         145.808         146.167         146.506         146.824         147.121         147.400         147.666         147.926         148.182    
          148.428         148.663         148.887         149.097         149.296         149.462         149.551         149.536         149.397         149.073    
          148.827         148.641         148.502         148.403         148.339         148.309         141.923         142.100         142.342         142.602    
          142.855         143.086         143.291         143.466         143.609         143.721         143.799         143.843         143.855         143.836    
          143.788         143.715         143.616         143.489         143.332         143.143         142.919         142.657         142.353         142.006    
          141.615         141.178         140.692         140.163         139.596         139.008         138.435         138.065         138.024         138.164    
          138.065         138.225         138.777         139.354         139.833         140.205         140.512         140.778         141.018         141.241    
          141.465         141.705         141.982         142.311         142.693         143.115         143.560         144.016         144.471         144.915    
          145.343         145.748         146.126         146.480         146.813         147.126         147.419         147.697         147.966         148.224    
          148.467         148.697         148.909         149.098         149.261         149.378         149.422         149.378         149.180         148.928    
          148.708         148.533         148.399         148.301         148.239         148.208         141.989         142.175         142.415         142.670    
          142.921         143.156         143.369         143.555         143.713         143.840         143.936         143.999         144.030         144.031    
          144.001         143.945         143.863         143.754         143.615         143.444         143.240         143.000         142.718         142.393    
          142.023         141.603         141.132         140.610         140.041         139.432         138.803         138.318         138.149         138.407    
          138.249         138.123         138.235         138.145         138.241         138.592         139.126         139.587         139.942         140.226    
          140.461         140.666         140.852         141.039         141.250         141.515         141.856         142.276         142.753         143.256    
          143.765         144.268         144.754         145.215         145.648         146.048         146.417         146.761         147.083         147.386    
          147.673         147.946         148.203         148.442         148.662         148.861         149.031         149.167         149.252         149.273    
          149.223         149.068         148.790         148.574         148.405         148.275         148.182         148.121         148.091         142.039    
          142.258         142.483         142.722         142.965         143.200         143.419         143.617         143.788         143.932         144.046    
          144.128         144.179         144.201         144.192         144.154         144.090         143.998         143.877         143.725         143.540    
          143.319         143.059         142.756         142.403         141.998         141.541         141.029         140.459         139.830         139.162    
          138.499         138.201         138.239         138.235         138.249         138.470         138.912         139.319         139.638         139.887    
          140.085         140.240         140.369         140.501         140.664         140.906         141.265         141.744         142.302         142.885    
          143.465         144.025         144.557         145.054         145.516         145.940         146.324         146.675         147.003         147.311    
          147.603         147.877         148.133         148.367         148.578         148.763         148.916         149.028         149.091         149.101    
          149.043         148.899         148.632         148.424         148.261         148.137         148.046         147.985         147.955         142.391    
          142.551         142.758         142.986         143.217         143.441         143.648         143.833         143.994         144.127         144.231    
          144.304         144.347         144.360         144.343         144.298         144.224         144.121         143.987         143.821         143.620    
          143.381         143.096         142.761         142.372         141.932         141.436         140.871         140.225         139.504         138.718    
          138.295         138.256         138.343         138.282         138.377         138.693         139.018         139.284         139.479         139.622    
          139.711         139.771         139.835         139.935         140.144         140.525         141.091         141.767         142.456         143.121    
          143.748         144.330         144.866         145.357         145.800         146.197         146.558         146.892         147.205         147.497    
          147.771         148.024         148.254         148.457         148.629         148.768         148.863         148.909         148.907         148.842    
          148.703         148.451         148.255         148.100         147.980         147.889         147.830         147.799         142.608         142.782    
          142.988         143.210         143.435         143.650         143.850         144.028         144.181         144.307         144.403         144.469    
          144.505         144.512         144.487         144.433         144.348         144.233         144.085         143.905         143.684         143.416    
          143.100         142.732         142.314         141.839         141.291         140.653         139.898         139.118         138.736         139.318    
          138.894         138.437         138.328         138.583         138.418         138.327         138.478         138.688         138.872         138.996    
          139.066         139.093         139.093         139.088         139.103         139.404         139.542         139.033         139.132         139.762    
          139.971         139.339         139.636         140.334         141.177         141.995         142.751         143.446         144.082         144.657    
          145.177         145.639         146.046         146.414         146.753         147.069         147.362         147.635         147.886         148.108    
          148.305         148.469         148.597         148.678         148.711         148.691         148.609         148.470         148.238         148.058    
          147.914         147.800         147.712         147.654         147.624         142.822         142.989         143.192         143.410         143.630    
          143.841         144.035         144.208         144.355         144.474         144.564         144.625         144.655         144.655         144.623    
          144.559         144.463         144.335         144.173         143.970         143.721         143.425         143.082         142.690         142.242    
          141.728         141.127         140.416         139.633         139.184         139.907         139.567         138.802         138.569         139.150    
          138.876         138.425         138.349         138.619         138.457         138.331         138.378         138.451         138.500         138.516    
          138.498         138.454         138.422         138.535         138.560         138.303         138.298         138.646         138.776         138.372    
          138.499         138.979         139.259         138.694         138.968         139.628         139.982         139.327         139.770         140.610    
          141.548         142.392         143.146         143.825         144.432         144.974         145.453         145.873         146.247         146.591    
          146.910         147.204         147.473         147.717         147.933         148.120         148.277         148.395         148.466         148.487    
          148.438         148.299         148.150         147.982         147.832         147.702         147.594         147.508         147.454         147.428    
          143.017         143.178         143.377         143.592         143.808         144.015         144.205         144.372         144.515         144.630    
          144.716         144.772         144.798         144.790         144.749         144.674         144.567         144.424         144.240         144.012    
          143.741         143.425         143.061         142.649         142.180         141.643         141.027         140.335         139.648         139.006    
          138.728         139.353         139.143         138.527         138.414         138.878         138.695         138.346         138.304         138.505    
          138.417         138.284         138.270         138.331         138.295         138.267         138.259         138.253         138.233         138.253    
          138.241         138.206         138.189         138.223         138.200         138.164         138.143         138.164         138.139         138.115    
          138.098         138.125         138.120         138.063         138.047         138.113         138.122         138.035         138.048         138.189    
          138.299         138.101         138.191         138.482         138.747         138.356         138.603         139.102         139.529         138.943    
          139.371         140.158         141.155         142.073         142.877         143.582         144.204         144.759         145.250         145.678    
          146.057         146.404         146.723         147.018         147.284         147.517         147.723         147.900         148.044         148.150    
          148.213         148.221         148.155         147.997         147.851         147.710         147.580         147.463         147.362         147.284    
          147.231         147.205         143.194         143.349         143.546         143.760         143.973         144.175         144.360         144.525    
          144.665         144.777         144.860         144.911         144.930         144.912         144.861         144.777         144.657         144.497    
          144.293         144.047         143.761         143.433         143.060         142.643         142.175         141.652         141.087         140.519    
          139.973         139.484         139.071         138.796         138.621         138.478         138.367         138.270         138.168         138.101    
          138.104         138.162         138.144         138.187         138.286         138.498         138.279         138.431         138.804         139.193    
          138.699         139.042         139.663         140.075         139.471         139.968         140.827         141.799         142.638         143.357    
          143.989         144.546         145.034         145.461         145.842         146.188         146.507         146.799         147.061         147.286    
          147.477         147.640         147.767         147.856         147.909         147.909         147.837         147.671         147.530         147.402    
          147.285         147.181         147.094         147.029         146.977         146.945         143.353         143.508         143.703         143.913    
          144.121         144.322         144.507         144.670         144.807         144.916         144.994         145.037         145.047         145.022    
          144.963         144.869         144.735         144.559         144.341         144.086         143.795         143.467         143.102         142.699    
          142.257         141.786         141.309         140.844         140.400         139.997         139.657         139.385         139.131         138.906    
          138.708         138.529         138.377         138.292         138.378         138.673         138.974         138.669         138.960         139.367    
          139.846         139.360         139.776         140.615         141.599         142.441         143.158         143.782         144.324         144.798    
          145.220         145.595         145.935         146.253         146.539         146.794         147.010         147.188         147.333         147.440    
          147.512         147.556         147.550         147.473         147.307         147.170         147.048         146.941         146.850         146.777    
          146.726         146.686         146.659         143.507         143.657         143.846         144.051         144.259         144.460         144.643    
          144.805         144.940         145.043         145.113         145.150         145.154         145.122         145.055         144.950         144.803    
          144.618         144.396         144.142         143.857         143.541         143.196         142.821         142.425         142.018         141.614    
          141.210         140.814         140.437         140.101         139.789         139.480         139.201         138.943         138.703         138.504    
          138.439         138.491         138.495         138.563         138.686         138.977         138.749         139.029         139.573         140.530    
          141.461         142.281         142.979         143.575         144.093         144.545         144.953         145.313         145.638         145.944    
          146.224         146.468         146.673         146.839         146.967         147.057         147.116         147.147         147.137         147.061    
          146.906         146.767         146.654         146.556         146.478         146.421         146.383         146.355         146.340         143.648    
          143.790         143.973         144.178         144.388         144.589         144.771         144.929         145.058         145.156         145.221    
          145.252         145.249         145.210         145.135         145.022         144.872         144.686         144.469         144.224         143.952    
          143.656         143.337         143.001         142.652         142.294         141.924         141.542         141.144         140.766         140.409    
          140.049         139.703         139.374         139.059         138.774         138.607         138.646         138.705         138.734         138.821    
          139.090         138.887         139.135         139.625         140.489         141.360         142.137         142.803         143.363         143.847    
          144.272         144.656         144.993         145.292         145.572         145.834         146.068         146.260         146.415         146.530    
          146.611         146.662         146.680         146.663         146.597         146.472         146.319         146.205         146.120         146.059    
          146.022         146.003         145.990         145.982         143.770         143.907         144.091         144.299         144.509         144.708    
          144.886         145.038         145.162         145.254         145.314         145.340         145.331         145.287         145.209         145.095    
          144.946         144.767         144.561         144.331         144.078         143.806         143.518         143.216         142.902         142.562    
          142.196         141.801         141.400         141.010         140.608         140.206         139.808         139.432         139.097         138.893    
          138.959         139.173         139.006         139.193         139.651         140.455         141.267         141.989         142.610         143.138    
          143.582         143.973         144.324         144.626         144.890         145.135         145.365         145.580         145.763         145.912    
          146.024         146.104         146.149         146.159         146.136         146.077         145.977         145.802         145.682         145.615    
          145.583         145.578         145.590         145.600         145.600         143.878         144.016         144.206         144.414         144.621    
          144.814         144.985         145.133         145.252         145.340         145.395         145.416         145.404         145.359         145.281    
          145.171         145.030         144.863         144.672         144.459         144.229         143.982         143.719         143.443         143.139    
          142.795         142.406         141.992         141.573         141.137         140.697         140.245         139.796         139.394         139.111    
          139.077         139.214         139.120         139.234         139.662         140.426         141.173         141.840         142.411         142.893    
          143.301         143.652         143.956         144.214         144.435         144.634         144.829         145.016         145.189         145.339    
          145.452         145.532         145.567         145.562         145.531         145.475         145.384         145.187         145.080         145.037    
          145.045         145.090         145.145         145.187         145.203         143.980         144.129         144.322         144.523         144.721    
          144.906         145.073         145.217         145.331         145.415         145.466         145.485         145.473         145.430         145.357    
          145.256         145.127         144.974         144.799         144.604         144.392         144.161         143.916         143.643         143.326    
          142.959         142.543         142.101         141.633         141.136         140.627         140.118         139.645         139.275         139.172    
          139.253         139.206         139.277         139.672         140.395         141.082         141.694         142.214         142.645         143.008    
          143.310         143.560         143.766         143.940         144.092         144.243         144.391         144.551         144.701         144.830    
          144.911         144.931         144.909         144.840         144.741         144.607         144.435         144.380         144.373         144.433    
          144.565         144.681         144.767         144.810         144.102         144.257         144.438         144.626         144.812         144.990    
          145.151         145.290         145.401         145.482         145.532         145.551         145.541         145.503         145.438         145.347    
          145.230         145.089         144.927         144.746         144.541         144.317         144.069         143.776         143.433         143.026    
          142.569         142.066         141.520         140.943         140.372         139.823         139.385         139.254         139.312         139.279    
          139.342         139.695         140.362         140.994         141.541         142.003         142.385         142.703         142.950         143.143    
          143.298         143.421         143.521         143.611         143.714         143.849         144.024         144.189         144.303         144.449    
          144.469         144.221         144.211         144.460         144.432         144.209         144.192         144.370         144.307         144.150    
          144.093         144.191         143.997         143.972         143.806         143.546         143.736         143.496         143.331         143.751    
          143.758         143.296         143.294         143.771         143.810         143.333         143.462         143.813         143.794         143.459    
          143.345         143.838         143.943         143.367         143.655         144.028         144.229         144.362         144.432         144.254    
          144.384         144.544         144.719         144.895         145.066         145.222         145.357         145.466         145.546         145.595    
          145.616         145.610         145.578         145.522         145.439         145.331         145.200         145.046         144.869         144.664    
          144.431         144.152         143.820         143.416         142.952         142.430         141.849         141.223         140.584         139.944    
          139.428         139.304         139.390         139.339         139.443         139.750         140.330         140.891         141.381         141.785    
          142.114         142.379         142.584         142.730         142.837         142.908         142.946         142.972         143.038         143.265    
          143.369         143.020         143.109         143.502         143.604         143.255         143.369         143.724         143.815         143.524    
          143.628         143.908         143.963         143.742         143.808         144.006         144.021         143.874         143.910         143.982    
          143.936         143.768         143.523         143.387         143.276         143.236         143.340         143.323         143.270         143.339    
          143.336         143.363         143.366         143.405         143.382         143.390         143.626         143.741         143.457         143.595    
          143.842         144.000         144.091         144.375         144.489         144.637         144.801         144.970         145.135         145.288    
          145.422         145.529         145.607         145.656         145.679         145.677         145.651         145.600         145.523         145.422    
          145.295         145.141         144.954         144.731         144.456         144.124         143.723         143.248         142.715         142.118    
          141.469         140.780         140.046         139.544         139.412         139.608         139.484         139.397         139.507         139.477    
          139.560         139.815         140.288         140.769         141.199         141.554         141.838         142.055         142.219         142.329    
          142.395         142.416         142.411         142.521         142.556         142.321         142.341         142.601         142.667         142.419    
          142.511         142.793         142.914         142.670         142.801         143.088         143.376         143.599         143.740         143.804    
          143.782         143.662         143.536         143.450         143.402         143.399         143.410         143.387         143.423         143.420    
          143.433         143.568         143.636         143.462         143.521         143.703         143.829         144.475         144.579         144.717    
          144.874         145.038         145.200         145.352         145.484         145.588         145.664         145.714         145.739         145.740    
          145.717         145.669         145.594         145.490         145.356         145.182         144.963         144.691         144.362         143.966    
          143.494         142.962         142.372         141.722         141.015         140.252         139.724         139.588         139.822         139.664    
          139.610         139.867         140.238         140.626         140.989         141.293         141.537         141.720         141.848         141.929    
          141.967         141.958         142.033         142.052         141.844         141.853         142.085         142.149         141.933         142.029    
          142.293         142.620         142.946         143.228         143.445         143.584         143.642         143.613         143.562         143.505    
          143.459         143.433         143.429         143.437         143.453         143.470         143.481         143.475         143.485         143.492    
          143.517         143.499         143.514         143.609         143.552         144.558         144.653         144.785         144.937         145.100    
          145.263         145.414         145.540         145.640         145.715         145.766         145.793         145.797         145.773         145.722    
          145.640         145.523         145.362         145.149         144.877         144.546         144.154         143.697         143.185         142.621    
          142.003         141.322         140.582         139.990         139.774         140.122         139.927         139.702         139.716         139.792    
          139.772         139.877         140.157         140.463         140.761         141.011         141.203         141.348         141.449         141.520    
          141.547         141.535         141.620         141.685         141.493         141.590         141.846         142.198         142.547         142.864    
          143.126         143.319         143.439         143.474         143.483         143.472         143.454         143.438         143.430         143.433    
          143.444         143.460         143.482         143.503         143.519         144.624         144.711         144.838         144.992         145.158    
          145.321         145.466         145.587         145.685         145.760         145.812         145.840         145.841         145.812         145.749    
          145.648         145.497         145.288         145.017         144.685         144.299         143.858         143.370         142.842         142.282    
          141.669         140.988         140.321         139.919         139.833         140.043         139.907         139.884         140.069         140.292    
          140.509         140.693         140.834         140.935         141.016         141.086         141.137         141.244         141.292         141.120    
          141.179         141.368         141.508         141.313         141.463         141.779         142.163         142.511         142.807         143.035    
          143.194         143.279         143.335         143.370         143.388         143.396         143.402         143.410         143.421         143.437    
          143.455         143.475         143.493         143.505         144.668         144.750         144.882         145.042         145.210         145.368    
          145.507         145.626         145.725         145.800         145.850         145.873         145.864         145.818         145.729         145.585    
          145.379         145.107         144.770         144.394         143.976         143.516         143.034         142.537         141.999         141.395    
          140.767         140.258         140.046         140.424         140.243         139.935         139.908         140.064         139.967         139.982    
          140.108         140.238         140.341         140.426         140.576         140.621         140.397         140.429         140.670         140.705    
          140.489         140.531         140.758         140.801         140.606         140.663         140.858         140.914         140.751         140.831    
          140.996         141.107         140.974         141.110         141.395         141.805         142.171         142.490         142.752         142.940    
          143.058         143.152         143.223         143.275         143.312         143.339         143.362         143.383         143.403         143.423    
          143.445         143.465         143.486         143.498         144.692         144.783         144.923         145.087         145.252         145.405    
          145.542         145.660         145.756         145.827         145.868         145.876         145.843         145.762         145.618         145.413    
          145.140         144.791         144.427         144.041         143.621         143.184         142.743         142.278         141.767         141.220    
          140.670         140.248         140.077         140.397         140.246         139.983         139.940         140.085         139.974         139.938    
          139.967         140.060         140.091         139.950         139.978         140.133         140.159         140.036         140.095         140.214    
          140.283         140.208         140.291         140.448         140.654         140.876         141.177         141.534         141.886         142.199    
          142.468         142.688         142.835         142.953         143.052         143.133         143.197         143.247         143.288         143.323    
          143.354         143.383         143.407         143.435         143.451         144.721         144.822         144.964         145.124         145.284    
          145.434         145.568         145.681         145.769         145.825         145.844         145.817         145.733         145.572         145.364    
          145.094         144.708         144.388         144.046         143.667         143.275         142.885         142.489         142.065         141.605    
          141.110         140.641         140.254         140.073         140.414         140.272         139.933         139.876         140.122         140.051    
          139.859         139.872         140.012         140.017         139.929         140.012         140.061         140.115         140.193         140.426    
          140.679         140.905         141.137         141.401         141.689         141.971         142.222         142.428         142.609         142.755    
          142.873         142.973         143.060         143.133         143.193         143.243         143.288         143.326         143.365         143.387    
          144.764         144.860         144.996         145.150         145.306         145.451         145.576         145.676         145.740         145.760    
          145.719         145.617         145.385         145.157         144.898         144.597         144.297         143.979         143.638         143.295    
          142.966         142.628         142.264         141.879         141.464         141.054         140.697         140.445         140.344         140.380    
          140.527         140.730         140.940         141.139         141.350         141.575         141.804         142.031         142.240         142.408    
          142.562         142.700         142.814         142.913         143.001         143.083         143.150         143.204         143.262         143.294    
          144.798         144.883         145.014         145.165         145.313         145.444         145.548         145.610         145.609         145.504    
          145.381         145.204         145.000         144.770         144.515         144.246         143.959         143.651         143.337         143.023    
          142.704         142.377         142.049         141.693         141.336         141.021         140.783         140.669         140.677         140.783    
          140.942         141.115         141.296         141.484         141.672         141.844         142.030         142.215         142.385         142.532    
          142.663         142.774         142.868         142.952         143.050         143.120         143.162         144.804         144.889         145.021    
          145.163         145.290         145.389         145.441         145.395         145.315         145.206         145.060         144.886         144.688    
          144.468         144.231         143.975         143.696         143.404         143.090         142.777         142.464         142.146         141.800    
          141.471         141.188         140.963         140.842         140.831         140.904         141.028         141.178         141.339         141.512    
          141.688         141.853         142.015         142.177         142.367         142.516         142.644         142.752         142.837         142.894    
          144.802         144.889         145.012         145.122         145.212         145.267         145.223         145.162         145.073         144.954    
          144.809         144.641         144.453         144.246         144.019         143.766         143.500         143.148         142.829         142.520    
          142.209         141.869         141.547         141.275         141.057         140.933         140.912         140.969         141.078         141.214    
          141.364         141.528         141.696         141.850         141.986         142.084         144.798         144.885         144.950         145.014    
          145.068         145.073         145.042         144.977         144.882         144.763         144.623         144.464         144.283         144.091    
          143.846         143.674         144.827         144.794         144.832         144.925         144.965         144.959         144.915         144.839    
          144.740         144.626         144.499         144.332         144.211         144.637         144.691         144.840         144.906         144.917    
          144.884         144.818         144.734         144.643         144.571    
1
  HEAD IN LAYER   3 AT END OF TIME STEP   1 IN STRESS PERIOD    2
  ---------------------------------------------------------------------------

                1               2               3               4               5               6               7               8               9              10
               11              12              13              14              15              16              17              18              19              20
               21              22              23              24              25              26              27              28              29              30
               31              32              33              34              35              36              37              38              39              40
               41              42              43              44              45              46              47              48              49              50
               51              52              53              54              55              56              57              58              59              60
               61              62              63              64              65              66              67              68              69              70
               71              72              73              74              75              76              77              78              79              80
               81              82              83              84              85              86              87              88              89              90
               91              92              93              94              95              96              97              98              99             100
              101             102             103             104             105             106             107             108             109             110
              111             112             113             114             115             116             117             118             119             120
              121             122             123             124             125             126             127             128             129             130
              131             132             133             134             135             136             137             138             139             140
              141             142             143             144             145             146             147             148             149             150
              151             152             153             154             155             156             157             158             159             160
              161             162             163             164             165             166             167             168             169             170
              171             172             173             174             175             176             177             178             179             180
              181             182             183             184             185             186             187             188             189             190
              191             192             193             194             195             196             197             198             199             200
              201             202             203             204             205             206             207             208             209             210
              211             212             213             214             215             216             217             218             219             220
              221             222             223             224             225             226             227             228             229             230
              231             232             233             234             235             236             237             238             239             240
              241             242             243             244             245             246             247             248             249             250
              251             252             253             254             255             256             257             258             259             260
              261             262             263             264             265             266             267             268             269             270
              271             272             273             274             275             276             277             278             279             280
              281             282             283             284             285             286             287             288             289             290
              291             292             293             294             295             296             297             298             299             300
              301             302             303             304             305             306             307             308             309             310
              311             312             313             314             315             316             317             318             319             320
              321             322             323             324             325             326             327             328             329             330
              331             332             333             334             335             336             337             338             339             340
              341             342             343             344             345             346             347             348             349             350
              351             352             353             354             355             356             357             358             359             360
              361             362             363             364             365             366             367             368             369             370
              371             372             373             374             375             376             377             378             379             380
              381             382             383             384             385             386             387             388             389             390
              391             392             393             394             395             396             397             398             399             400
              401             402             403             404             405             406             407             408             409             410
              411             412             413             414             415             416             417             418             419             420
              421             422             423             424             425             426             427             428             429             430
              431             432             433             434             435             436             437             438             439             440
              441             442             443             444             445             446             447             448             449             450
              451             452             453             454             455             456             457             458             459             460
              461             462             463             464             465             466             467             468             469             470
              471             472             473             474             475             476             477             478             479             480
              481             482             483             484             485             486             487             488             489             490
              491             492             493             494             495             496             497             498             499             500
              501             502             503             504             505             506             507             508             509             510
              511             512             513             514             515             516             517             518             519             520
              521             522             523             524             525             526             527             528             529             530
              531             532             533             534             535             536             537             538             539             540
              541             542             543             544             545             546             547             548             549             550
              551             552             553             554             555             556             557             558             559             560
              561             562             563             564             565             566             567             568             569             570
              571             572             573             574             575             576             577             578             579             580
              581             582             583             584             585             586             587             588             589             590
              591             592             593             594             595             596             597             598             599             600
              601             602             603             604             605             606             607             608             609             610
              611             612             613             614             615             616             617             618             619             620
              621             622             623             624             625             626             627             628             629             630
              631             632             633             634             635             636             637             638             639             640
              641             642             643             644             645             646             647             648             649             650
              651             652             653             654             655             656             657             658             659             660
              661             662             663             664             665             666             667             668             669             670
              671             672             673             674             675             676             677             678             679             680
              681             682             683             684             685             686             687             688             689             690
              691             692             693             694             695             696             697             698             699             700
              701             702             703             704             705             706             707             708             709             710
              711             712             713             714             715             716             717             718             719             720
              721             722             723             724             725             726             727             728             729             730
              731             732             733             734             735             736             737             738             739             740
              741             742             743             744             745             746             747             748             749             750
              751             752             753             754             755             756             757             758             759             760
              761             762             763             764             765             766             767             768             769             770
              771             772             773             774             775             776             777             778             779             780
              781             782             783             784             785             786             787             788             789             790
              791             792             793             794             795             796             797             798             799             800
              801             802             803             804             805             806             807             808             809             810
              811             812             813             814             815             816             817             818             819             820
              821             822             823             824             825             826             827             828             829             830
              831             832             833             834             835             836             837             838             839             840
              841             842             843             844             845             846             847             848             849             850
              851             852             853             854             855             856             857             858             859             860
              861             862             863             864             865             866             867             868             869             870
              871             872             873             874             875             876             877             878             879             880
              881             882             883             884             885             886             887             888             889             890
              891             892             893             894             895             896             897             898             899             900
              901             902             903             904             905             906             907             908             909             910
              911             912             913             914             915             916             917             918             919             920
              921             922             923             924             925             926             927             928             929             930
              931             932             933             934             935             936             937             938             939             940
              941             942             943             944             945             946             947             948             949             950
              951             952             953             954             955             956             957             958             959             960
              961             962             963             964             965             966             967             968             969             970
              971             972             973             974             975             976             977             978             979             980
              981             982             983             984             985             986             987             988             989             990
              991             992             993             994             995             996             997             998             999            1000
             1001            1002            1003            1004            1005            1006            1007            1008            1009            1010
             1011            1012            1013            1014            1015            1016            1017            1018            1019            1020
             1021            1022            1023            1024            1025            1026            1027            1028            1029            1030
             1031            1032            1033            1034            1035            1036            1037            1038            1039            1040
             1041            1042            1043            1044            1045            1046            1047            1048            1049            1050
             1051            1052            1053            1054            1055            1056            1057            1058            1059            1060
             1061            1062            1063            1064            1065            1066            1067            1068            1069            1070
             1071            1072            1073            1074            1075            1076            1077            1078            1079            1080
             1081            1082            1083            1084            1085            1086            1087            1088            1089            1090
             1091            1092            1093            1094            1095            1096            1097            1098            1099            1100
             1101            1102            1103            1104            1105            1106            1107            1108            1109            1110
             1111            1112            1113            1114            1115            1116            1117            1118            1119            1120
             1121            1122            1123            1124            1125            1126            1127            1128            1129            1130
             1131            1132            1133            1134            1135            1136            1137            1138            1139            1140
             1141            1142            1143            1144            1145            1146            1147            1148            1149            1150
             1151            1152            1153            1154            1155            1156            1157            1158            1159            1160
             1161            1162            1163            1164            1165            1166            1167            1168            1169            1170
             1171            1172            1173            1174            1175            1176            1177            1178            1179            1180
             1181            1182            1183            1184            1185            1186            1187            1188            1189            1190
             1191            1192            1193            1194            1195            1196            1197            1198            1199            1200
             1201            1202            1203            1204            1205            1206            1207            1208            1209            1210
             1211            1212            1213            1214            1215            1216            1217            1218            1219            1220
             1221            1222            1223            1224            1225            1226            1227            1228            1229            1230
             1231            1232            1233            1234            1235            1236            1237            1238            1239            1240
             1241            1242            1243            1244            1245            1246            1247            1248            1249            1250
             1251            1252            1253            1254            1255            1256            1257            1258            1259            1260
             1261            1262            1263            1264            1265            1266            1267            1268            1269            1270
             1271            1272            1273            1274            1275            1276            1277            1278            1279            1280
             1281            1282            1283            1284            1285            1286            1287            1288            1289            1290
             1291            1292            1293            1294            1295            1296            1297            1298            1299            1300
             1301            1302            1303            1304            1305            1306            1307            1308            1309            1310
             1311            1312            1313            1314            1315            1316            1317            1318            1319            1320
             1321            1322            1323            1324            1325            1326            1327            1328            1329            1330
             1331            1332            1333            1334            1335            1336            1337            1338            1339            1340
             1341            1342            1343            1344            1345            1346            1347            1348            1349            1350
             1351            1352            1353            1354            1355            1356            1357            1358            1359            1360
             1361            1362            1363            1364            1365            1366            1367            1368            1369            1370
             1371            1372            1373            1374            1375            1376            1377            1378            1379            1380
             1381            1382            1383            1384            1385            1386            1387            1388            1389            1390
             1391            1392            1393            1394            1395            1396            1397            1398            1399            1400
             1401            1402            1403            1404            1405            1406            1407            1408            1409            1410
             1411            1412            1413            1414            1415            1416            1417            1418            1419            1420
             1421            1422            1423            1424            1425            1426            1427            1428            1429            1430
             1431            1432            1433            1434            1435            1436            1437            1438            1439            1440
             1441            1442            1443            1444            1445            1446            1447            1448            1449            1450
             1451            1452            1453            1454            1455            1456            1457            1458            1459            1460
             1461            1462            1463            1464            1465            1466            1467            1468            1469            1470
             1471            1472            1473            1474            1475            1476            1477            1478            1479            1480
             1481            1482            1483            1484            1485            1486            1487            1488            1489            1490
             1491            1492            1493            1494            1495            1496            1497            1498            1499            1500
             1501            1502            1503            1504            1505            1506            1507            1508            1509            1510
             1511            1512            1513            1514            1515            1516            1517            1518            1519            1520
             1521            1522            1523            1524            1525            1526            1527            1528            1529            1530
             1531            1532            1533            1534            1535            1536            1537            1538            1539            1540
             1541            1542            1543            1544            1545            1546            1547            1548            1549            1550
             1551            1552            1553            1554            1555            1556            1557            1558            1559            1560
             1561            1562            1563            1564            1565            1566            1567            1568            1569            1570
             1571            1572            1573            1574            1575            1576            1577            1578            1579            1580
             1581            1582            1583            1584            1585            1586            1587            1588            1589            1590
             1591            1592            1593            1594            1595            1596            1597            1598            1599            1600
             1601            1602            1603            1604            1605            1606            1607            1608            1609            1610
             1611            1612            1613            1614            1615            1616            1617            1618            1619            1620
             1621            1622            1623            1624            1625            1626            1627            1628            1629            1630
             1631            1632            1633            1634            1635            1636            1637            1638            1639            1640
             1641            1642            1643            1644            1645            1646            1647            1648            1649            1650
             1651            1652            1653            1654            1655            1656            1657            1658            1659            1660
             1661            1662            1663            1664            1665            1666            1667            1668            1669            1670
             1671            1672            1673            1674            1675            1676            1677            1678            1679            1680
             1681            1682            1683            1684            1685            1686            1687            1688            1689            1690
             1691            1692            1693            1694            1695            1696            1697            1698            1699            1700
             1701            1702            1703            1704            1705            1706            1707            1708            1709            1710
             1711            1712            1713            1714            1715            1716            1717            1718            1719            1720
             1721            1722            1723            1724            1725            1726            1727            1728            1729            1730
             1731            1732            1733            1734            1735            1736            1737            1738            1739            1740
             1741            1742            1743            1744            1745            1746            1747            1748            1749            1750
             1751            1752            1753            1754            1755            1756            1757            1758            1759            1760
             1761            1762            1763            1764            1765            1766            1767            1768            1769            1770
             1771            1772            1773            1774            1775            1776            1777            1778            1779            1780
             1781            1782            1783            1784            1785            1786            1787            1788            1789            1790
             1791            1792            1793            1794            1795            1796            1797            1798            1799            1800
             1801            1802            1803            1804            1805            1806            1807            1808            1809            1810
             1811            1812            1813            1814            1815            1816            1817            1818            1819            1820
             1821            1822            1823            1824            1825            1826            1827            1828            1829            1830
             1831            1832            1833            1834            1835            1836            1837            1838            1839            1840
             1841            1842            1843            1844            1845            1846            1847            1848            1849            1850
             1851            1852            1853            1854            1855            1856            1857            1858            1859            1860
             1861            1862            1863            1864            1865            1866            1867            1868            1869            1870
             1871            1872            1873            1874            1875            1876            1877            1878            1879            1880
             1881            1882            1883            1884            1885            1886            1887            1888            1889            1890
             1891            1892            1893            1894            1895            1896            1897            1898            1899            1900
             1901            1902            1903            1904            1905            1906            1907            1908            1909            1910
             1911            1912            1913            1914            1915            1916            1917            1918            1919            1920
             1921            1922            1923            1924            1925            1926            1927            1928            1929            1930
             1931            1932            1933            1934            1935            1936            1937            1938            1939            1940
             1941            1942            1943            1944            1945            1946            1947            1948            1949            1950
             1951            1952            1953            1954            1955            1956            1957            1958            1959            1960
             1961            1962            1963            1964            1965            1966            1967            1968            1969            1970
             1971            1972            1973            1974            1975            1976            1977            1978            1979            1980
             1981            1982            1983            1984            1985            1986            1987            1988            1989            1990
             1991            1992            1993            1994            1995            1996            1997            1998            1999            2000
             2001            2002            2003            2004            2005            2006            2007            2008            2009            2010
             2011            2012            2013            2014            2015            2016            2017            2018            2019            2020
             2021            2022            2023            2024            2025            2026            2027            2028            2029            2030
             2031            2032            2033            2034            2035            2036            2037            2038            2039            2040
             2041            2042            2043            2044            2045            2046            2047            2048            2049            2050
             2051            2052            2053            2054            2055            2056            2057            2058            2059            2060
             2061            2062            2063            2064            2065            2066            2067            2068            2069            2070
             2071            2072            2073            2074            2075            2076            2077            2078            2079            2080
             2081            2082            2083            2084            2085            2086            2087            2088            2089            2090
             2091            2092            2093            2094            2095            2096            2097            2098            2099            2100
             2101            2102            2103            2104            2105            2106            2107            2108            2109            2110
             2111            2112            2113            2114            2115            2116            2117            2118            2119            2120
             2121            2122            2123            2124            2125            2126            2127            2128            2129            2130
             2131            2132            2133            2134            2135            2136            2137            2138            2139            2140
             2141            2142            2143            2144            2145            2146            2147            2148            2149            2150
             2151            2152            2153            2154            2155            2156            2157            2158            2159            2160
             2161            2162            2163            2164            2165            2166            2167            2168            2169            2170
             2171            2172            2173            2174            2175            2176            2177            2178            2179            2180
             2181            2182            2183            2184            2185            2186            2187            2188            2189            2190
             2191            2192            2193            2194            2195            2196            2197            2198            2199            2200
             2201            2202            2203            2204            2205            2206            2207            2208            2209            2210
             2211            2212            2213            2214            2215            2216            2217            2218            2219            2220
             2221            2222            2223            2224            2225            2226            2227            2228            2229            2230
             2231            2232            2233            2234            2235            2236            2237            2238            2239            2240
             2241            2242            2243            2244            2245            2246            2247            2248            2249            2250
             2251            2252            2253            2254            2255            2256            2257            2258            2259            2260
             2261            2262            2263            2264            2265            2266            2267            2268            2269            2270
             2271            2272            2273            2274            2275            2276            2277            2278            2279            2280
             2281            2282            2283            2284            2285            2286            2287            2288            2289            2290
             2291            2292            2293            2294            2295            2296            2297            2298            2299            2300
             2301            2302            2303            2304            2305            2306            2307            2308            2309            2310
             2311            2312            2313            2314            2315            2316            2317            2318            2319            2320
             2321            2322            2323            2324            2325            2326            2327            2328            2329            2330
             2331            2332            2333            2334            2335            2336            2337            2338            2339            2340
             2341            2342            2343            2344            2345            2346            2347            2348            2349            2350
             2351            2352            2353            2354            2355            2356            2357            2358            2359            2360
             2361            2362            2363            2364            2365            2366            2367            2368            2369            2370
             2371            2372            2373            2374            2375            2376            2377            2378            2379            2380
             2381            2382            2383            2384            2385            2386            2387            2388            2389            2390
             2391            2392            2393            2394            2395            2396            2397            2398            2399            2400
             2401            2402            2403            2404            2405            2406            2407            2408            2409            2410
             2411            2412            2413            2414            2415            2416            2417            2418            2419            2420
             2421            2422            2423            2424            2425            2426            2427            2428            2429            2430
             2431            2432            2433            2434            2435            2436            2437            2438            2439            2440
             2441            2442            2443            2444            2445            2446            2447            2448            2449            2450
             2451            2452            2453            2454            2455            2456            2457            2458            2459            2460
             2461            2462            2463            2464            2465            2466            2467            2468            2469            2470
             2471            2472            2473            2474            2475            2476            2477            2478            2479            2480
             2481            2482            2483            2484            2485            2486            2487            2488            2489            2490
             2491            2492            2493            2494            2495            2496            2497            2498            2499            2500
             2501            2502            2503            2504            2505            2506            2507            2508            2509            2510
             2511            2512            2513            2514            2515            2516            2517            2518            2519            2520
             2521            2522            2523            2524            2525            2526            2527            2528            2529            2530
             2531            2532            2533            2534            2535            2536            2537            2538            2539            2540
             2541            2542            2543            2544            2545            2546            2547            2548            2549            2550
             2551            2552            2553            2554            2555            2556            2557            2558            2559            2560
             2561            2562            2563            2564            2565            2566            2567            2568            2569            2570
             2571            2572            2573            2574            2575            2576            2577            2578            2579            2580
             2581            2582            2583            2584            2585            2586            2587            2588            2589            2590
             2591            2592            2593            2594            2595            2596            2597            2598            2599            2600
             2601            2602            2603            2604            2605            2606            2607            2608            2609            2610
             2611            2612            2613            2614            2615            2616            2617            2618            2619            2620
             2621            2622            2623            2624            2625            2626            2627            2628            2629            2630
             2631            2632            2633            2634            2635            2636            2637            2638            2639            2640
             2641            2642            2643            2644            2645            2646            2647            2648            2649            2650
             2651            2652            2653            2654            2655            2656            2657            2658            2659            2660
             2661            2662            2663            2664            2665            2666            2667            2668            2669            2670
             2671            2672            2673            2674            2675            2676            2677            2678            2679            2680
             2681            2682            2683            2684            2685            2686            2687            2688            2689            2690
             2691            2692            2693            2694            2695            2696            2697            2698            2699            2700
             2701            2702            2703            2704            2705            2706            2707            2708            2709            2710
             2711            2712            2713            2714            2715            2716            2717            2718            2719            2720
             2721            2722            2723            2724            2725            2726            2727            2728            2729            2730
             2731            2732            2733            2734            2735            2736            2737            2738            2739            2740
             2741            2742            2743            2744            2745            2746            2747            2748            2749            2750
             2751            2752            2753            2754            2755            2756            2757            2758            2759            2760
             2761            2762            2763            2764            2765            2766            2767            2768            2769            2770
             2771            2772            2773            2774            2775            2776            2777            2778            2779            2780
             2781            2782            2783            2784            2785            2786            2787            2788            2789            2790
             2791            2792            2793            2794            2795            2796            2797            2798            2799            2800
             2801            2802            2803            2804            2805            2806            2807            2808            2809            2810
             2811            2812            2813            2814            2815            2816            2817            2818            2819            2820
             2821            2822            2823            2824            2825            2826            2827            2828            2829            2830
             2831            2832            2833            2834            2835            2836            2837            2838            2839            2840
             2841            2842            2843            2844            2845            2846            2847            2848            2849            2850
             2851            2852            2853            2854            2855            2856            2857            2858            2859            2860
             2861            2862            2863            2864            2865            2866            2867            2868            2869            2870
             2871            2872            2873            2874            2875            2876            2877            2878            2879            2880
             2881            2882            2883            2884            2885            2886            2887            2888            2889            2890
             2891            2892            2893            2894            2895            2896            2897            2898            2899            2900
             2901            2902            2903            2904            2905            2906            2907            2908            2909            2910
             2911            2912            2913            2914            2915            2916            2917            2918            2919            2920
             2921            2922            2923            2924            2925            2926            2927            2928            2929            2930
             2931            2932            2933            2934            2935            2936            2937            2938            2939            2940
             2941            2942            2943            2944            2945            2946            2947            2948            2949            2950
             2951            2952            2953            2954            2955            2956            2957            2958            2959            2960
             2961            2962            2963            2964            2965            2966            2967            2968            2969            2970
             2971            2972            2973            2974            2975            2976            2977            2978            2979            2980
             2981            2982            2983            2984            2985            2986            2987            2988            2989            2990
             2991            2992            2993            2994            2995            2996            2997            2998            2999            3000
             3001            3002            3003            3004            3005            3006            3007            3008            3009            3010
             3011            3012            3013            3014            3015            3016            3017            3018            3019            3020
             3021            3022            3023            3024            3025            3026            3027            3028            3029            3030
             3031            3032            3033            3034            3035            3036            3037            3038            3039            3040
             3041            3042            3043            3044            3045            3046            3047            3048            3049            3050
             3051            3052            3053            3054            3055            3056            3057            3058            3059            3060
             3061            3062            3063            3064            3065            3066            3067            3068            3069            3070
             3071            3072            3073            3074            3075            3076            3077            3078            3079            3080
             3081            3082            3083            3084            3085            3086            3087            3088            3089            3090
             3091            3092            3093            3094            3095            3096            3097            3098            3099            3100
             3101            3102            3103            3104            3105            3106            3107            3108            3109            3110
             3111            3112            3113            3114            3115            3116            3117            3118            3119            3120
             3121            3122            3123            3124            3125            3126            3127            3128            3129            3130
             3131            3132            3133            3134            3135
 ................................................................................................................................................................
   1      138.905         138.753         138.524         138.264         138.056         137.925         138.076         137.945         137.746         137.527    
          137.362         137.252         137.195         137.183         137.207         137.261         137.336         137.426         137.525         137.626    
          137.720         137.802         137.857         139.311         139.098         138.884         138.635         138.365         138.128         137.995    
          138.182         138.074         137.863         137.765         137.937         137.813         137.609         137.433         137.312         137.246    
          137.226         137.245         137.295         137.368         137.456         137.554         137.656         137.754         137.846         137.929    
          138.014         139.759         139.541         139.322         139.089         138.831         138.557         138.275         138.028         137.899    
          138.111         138.009         137.770         137.680         137.871         137.777         137.576         137.508         137.667         137.574    
          137.430         137.342         137.305         137.312         137.352         137.419         137.503         137.599         137.701         137.804    
          137.905         138.004         138.102         138.200         140.187         139.987         139.786         139.574         139.344         139.090    
          138.820         138.541         138.261         137.997         137.775         137.674         137.867         137.790         137.589         137.535    
          137.696         137.614         137.485         137.421         137.406         137.429         137.483         137.559         137.649         137.749    
          137.856         137.965         138.074         138.185         138.296         138.407         140.560         140.393         140.222         140.042    
          139.847         139.631         139.390         139.132         138.860         138.581         138.302         138.039         137.822         137.730    
          137.929         137.860         137.656         137.611         137.774         137.700         137.579         137.531         137.529         137.561    
          137.621         137.701         137.795         137.903         138.018         138.137         138.261         138.387         138.515         138.644    
          140.865         140.732         140.600         140.460         140.307         140.135         139.939         139.718         139.476         139.218    
          138.945         138.662         138.382         138.128         137.914         137.828         138.031         137.968         137.761         137.721    
          137.889         137.819         137.701         137.661         137.662         137.697         137.758         137.842         137.945         138.062    
          138.190         138.327         138.470         138.618         138.770         138.922         141.098         141.006         140.907         140.806    
          140.695         140.569         140.422         140.252         140.054         139.834         139.595         139.337         139.061         138.776    
          138.501         138.253         138.041         137.957         138.168         138.108         137.895         137.857         138.033         137.963    
          137.843         137.800         137.798         137.831         137.894         137.985         138.100         138.234         138.382         138.542    
          138.712         138.889         139.073         139.259         141.260         141.199         141.140         141.077         141.008         140.926    
          140.827         140.707         140.562         140.391         140.195         139.979         139.741         139.481         139.204         138.923    
          138.653         138.412         138.197         138.114         138.336         138.278         138.051         138.011         138.201         138.127    
          137.994         137.943         137.935         137.965         138.033         138.137         138.270         138.427         138.602         138.792    
          138.996         139.214         139.445         139.687         141.363         141.333         141.305         141.278         141.246         141.207    
          141.154         141.082         140.989         140.871         140.727         140.558         140.366         140.151         139.913         139.653    
          139.379         139.102         138.838         138.602         138.379         138.289         138.528         138.465         138.217         138.168    
          138.375         138.317         138.117         138.085         138.245         138.205         138.060         138.048         138.160         138.124    
          138.070         138.102         138.181         138.305         138.463         138.649         138.857         139.086         139.335         139.609    
          139.921         140.330         140.678         140.989         141.280         141.561         141.834         142.101         142.363         142.623    
          142.880         143.135         143.387         143.634         143.878         144.118         144.354         144.584         144.808         145.026    
          145.235         145.434         145.620         145.795         145.961         146.126         146.300         146.497         146.725         146.983    
          147.239         147.484         147.703         147.891         148.045         148.164         148.236         141.421         141.418         141.418    
          141.418         141.414         141.402         141.375         141.332         141.265         141.174         141.057         140.914         140.748    
          140.557         140.340         140.101         139.843         139.572         139.302         139.043         138.807         138.607         138.437    
          138.284         138.231         138.389         138.351         138.198         138.182         138.299         138.275         138.181         138.189    
          138.255         138.246         138.247         138.348         138.497         138.685         138.904         139.150         139.421         139.718    
          140.035         140.373         140.698         141.001         141.288         141.567         141.839         142.106         142.369         142.629    
          142.886         143.144         143.399         143.650         143.897         144.142         144.383         144.618         144.848         145.072    
          145.287         145.492         145.684         145.864         146.036         146.208         146.388         146.587         146.810         147.054    
          147.302         147.539         147.752         147.939         148.093         148.215         148.305         148.379         141.507         141.519    
          141.538         141.561         141.581         141.593         141.592         141.575         141.535         141.469         141.377         141.258    
          141.116         140.949         140.756         140.537         140.299         140.042         139.776         139.509         139.252         139.011    
          138.792         138.600         138.458         138.351         138.327         138.436         138.403         138.354         138.412         138.537    
          138.714         138.934         139.189         139.474         139.784         140.098         140.411         140.721         141.015         141.298    
          141.574         141.843         142.108         142.372         142.634         142.894         143.156         143.416         143.673         143.928    
          144.181         144.431         144.676         144.916         145.152         145.378         145.591         145.792         145.980         146.161    
          146.340         146.525         146.724         146.942         147.174         147.410         147.638         147.846         148.030         148.181    
          148.300         148.385         148.447         148.501         141.609         141.630         141.665         141.706         141.747         141.782    
          141.804         141.810         141.794         141.753         141.683         141.588         141.468         141.323         141.153         140.956    
          140.737         140.498         140.242         139.978         139.711         139.447         139.193         138.957         138.752         138.573    
          138.516         138.681         138.638         138.484         138.472         138.587         138.551         138.512         138.592         138.743    
          138.951         139.205         139.496         139.814         140.128         140.433         140.734         141.023         141.300         141.573    
          141.838         142.103         142.367         142.631         142.895         143.163         143.430         143.696         143.961         144.225    
          144.487         144.744         144.999         145.249         145.488         145.713         145.924         146.121         146.310         146.496    
          146.686         146.885         147.099         147.322         147.549         147.770         147.976         148.156         148.305         148.411    
          148.477         148.518         148.547         148.571         141.720         141.748         141.795         141.853         141.913         141.968    
          142.011         142.037         142.041         142.021         141.975         141.901         141.802         141.677         141.528         141.352    
          141.152         140.931         140.690         140.433         140.165         139.891         139.616         139.349         139.100         138.881    
          138.711         138.656         138.811         138.770         138.629         138.624         138.724         138.695         138.675         138.780    
          138.960         139.202         139.492         139.814         140.131         140.433         140.731         141.016         141.289         141.556    
          141.818         142.081         142.346         142.613         142.883         143.156         143.431         143.707         143.984         144.262    
          144.538         144.811         145.080         145.346         145.601         145.838         146.058         146.266         146.464         146.658    
          146.852         147.052         147.264         147.482         147.704         147.923         148.129         148.306         148.453         148.539    
          148.576         148.588         148.588         148.585         148.579         141.835         141.868         141.926         141.998         142.075    
          142.147         142.208         142.252         142.275         142.274         142.247         142.194         142.114         142.009         141.879    
          141.723         141.543         141.339         141.113         140.867         140.604         140.329         140.045         139.758         139.479    
          139.218         138.998         138.838         138.790         138.929         138.892         138.771         138.774         138.853         138.835    
          138.838         138.972         139.187         139.467         139.789         140.108         140.409         140.705         140.986         141.255    
          141.516         141.775         142.036         142.302         142.571         142.847         143.128         143.413         143.701         143.992    
          144.284         144.575         144.865         145.149         145.432         145.701         145.949         146.182         146.400         146.608    
          146.810         147.009         147.212         147.426         147.645         147.866         148.084         148.289         148.459         148.595    
          148.663         148.667         148.647         148.619         148.591         148.564         148.536         141.950         141.988         142.054    
          142.138         142.230         142.318         142.394         142.454         142.494         142.509         142.499         142.463         142.402    
          142.315         142.203         142.066         141.905         141.718         141.508         141.276         141.023         140.752         140.466    
          140.171         139.873         139.582         139.316         139.100         138.953         138.914         139.032         139.000         138.906    
          138.917         138.971         138.966         138.998         139.170         139.427         139.742         140.062         140.362         140.654    
          140.930         141.194         141.449         141.705         141.965         142.230         142.503         142.784         143.074         143.369    
          143.671         143.976         144.284         144.592         144.897         145.198         145.495         145.777         146.038         146.282    
          146.512         146.730         146.941         147.147         147.356         147.573         147.795         148.020         148.236         148.437    
          148.603         148.714         148.753         148.727         148.681         148.630         148.582         148.540         148.503         148.470    
          142.061         142.103         142.176         142.271         142.375         142.477         142.567         142.642         142.695         142.725    
          142.730         142.708         142.663         142.594         142.499         142.380         142.237         142.069         141.875         141.658    
          141.417         141.155         140.873         140.578         140.271         139.960         139.660         139.393         139.183         139.054    
          139.027         139.120         139.097         139.034         139.059         139.083         139.095         139.165         139.382         139.680    
          139.995         140.292         140.576         140.845         141.102         141.353         141.603         141.860         142.126         142.402    
          142.689         142.988         143.295         143.611         143.933         144.258         144.583         144.904         145.219         145.529    
          145.823         146.096         146.353         146.595         146.824         147.045         147.260         147.476         147.698         147.924    
          148.151         148.371         148.566         148.714         148.791         148.797         148.746         148.680         148.613         148.552    
          148.499         148.459         148.434         142.167         142.212         142.292         142.395         142.510         142.622         142.725    
          142.812         142.878         142.921         142.939         142.931         142.900         142.846         142.768         142.666         142.540    
          142.389         142.213         142.012         141.785         141.535         141.261         140.969         140.663         140.344         140.023    
          139.719         139.453         139.253         139.150         139.140         139.205         139.195         139.168         139.212         139.202    
          139.237         139.349         139.613         139.915         140.203         140.475         140.732         140.980         141.223         141.469    
          141.721         141.986         142.265         142.559         142.867         143.188         143.520         143.860         144.202         144.545    
          144.882         145.210         145.530         145.835         146.121         146.391         146.644         146.884         147.115         147.341    
          147.564         147.791         148.020         148.247         148.458         148.646         148.768         148.811         148.788         148.720    
          148.641         148.564         148.494         148.436         148.394         148.373         142.264         142.313         142.398         142.509    
          142.632         142.754         142.867         142.964         143.042         143.097         143.127         143.131         143.113         143.073    
          143.011         142.926         142.817         142.684         142.525         142.340         142.129         141.892         141.630         141.346    
          141.042         140.722         140.393         140.066         139.761         139.503         139.324         139.257         139.269         139.308    
          139.308         139.350         139.555         139.826         140.100         140.354         140.593         140.829         141.062         141.300    
          141.547         141.808         142.088         142.389         142.708         143.045         143.395         143.754         144.116         144.478    
          144.832         145.173         145.502         145.815         146.112         146.393         146.657         146.908         147.149         147.382    
          147.609         147.840         148.070         148.291         148.494         148.661         148.753         148.767         148.722         148.646    
          148.562         148.481         148.409         148.350         148.309         148.289         142.351         142.404         142.496         142.613    
          142.742         142.872         142.992         143.099         143.186         143.252         143.293         143.310         143.304         143.278    
          143.230         143.161         143.069         142.953         142.811         142.642         142.446         142.224         141.974         141.700    
          141.405         141.087         140.756         140.420         140.092         139.792         139.548         139.402         139.370         139.479    
          139.434         139.397         139.523         139.740         139.984         140.215         140.433         140.650         140.869         141.095    
          141.334         141.591         141.871         142.178         142.511         142.865         143.236         143.616         144.001         144.382    
          144.753         145.108         145.446         145.767         146.071         146.361         146.634         146.895         147.144         147.381    
          147.611         147.841         148.067         148.279         148.461         148.596         148.661         148.656         148.604         148.529    
          148.448         148.370         148.300         148.244         148.205         148.185         142.423         142.486         142.586         142.708    
          142.841         142.975         143.102         143.216         143.312         143.388         143.440         143.468         143.475         143.461    
          143.428         143.374         143.299         143.199         143.073         142.921         142.740         142.532         142.296         142.033    
          141.746         141.437         141.107         140.769         140.430         140.106         139.816         139.602         139.528         139.691    
          139.631         139.487         139.477         139.567         139.534         139.529         139.670         139.862         140.061         140.254    
          140.447         140.646         140.853         141.078         141.329         141.610         141.926         142.273         142.647         143.042    
          143.448         143.856         144.257         144.645         145.016         145.366         145.693         146.002         146.296         146.578    
          146.845         147.098         147.339         147.571         147.793         148.004         148.197         148.360         148.466         148.506    
          148.497         148.450         148.381         148.308         148.236         148.171         148.118         148.080         148.061         142.472    
          142.563         142.672         142.797         142.930         143.065         143.195         143.315         143.420         143.505         143.568    
          143.608         143.627         143.627         143.607         143.569         143.509         143.425         143.316         143.179         143.015    
          142.822         142.600         142.349         142.072         141.770         141.446         141.108         140.764         140.426         140.110    
          139.840         139.666         139.607         139.745         139.675         139.586         139.625         139.742         139.894         140.053    
          140.219         140.391         140.574         140.780         141.020         141.302         141.629         141.996         142.395         142.818    
          143.252         143.685         144.107         144.512         144.896         145.260         145.594         145.904         146.200         146.487    
          146.760         147.016         147.260         147.491         147.704         147.894         148.061         148.206         148.298         148.327    
          148.317         148.276         148.215         148.150         148.084         148.023         147.970         147.934         147.916         142.649    
          142.760         142.883         143.013         143.145         143.276         143.398         143.508         143.602         143.677         143.731    
          143.764         143.778         143.773         143.750         143.705         143.636         143.542         143.420         143.271         143.094    
          142.886         142.648         142.382         142.089         141.772         141.438         141.093         140.747         140.413         140.105    
          139.869         139.771         139.962         139.855         139.688         139.618         139.637         139.720         139.833         139.963    
          140.106         140.264         140.448         140.673         140.953         141.294         141.686         142.116         142.571         143.036    
          143.496         143.940         144.363         144.760         145.130         145.469         145.782         146.079         146.368         146.643    
          146.901         147.145         147.374         147.580         147.760         147.913         148.044         148.131         148.156         148.141    
          148.101         148.045         147.981         147.917         147.856         147.806         147.770         147.753         142.856         142.971    
          143.091         143.217         143.344         143.467         143.581         143.683         143.770         143.838         143.887         143.916    
          143.926         143.917         143.887         143.833         143.753         143.646         143.512         143.349         143.156         142.931    
          142.677         142.394         142.086         141.759         141.417         141.069         140.724         140.404         140.259         140.541    
          140.392         140.101         139.976         140.233         140.085         139.846         139.664         139.568         139.560         139.616    
          139.702         139.816         139.954         140.118         140.327         140.616         140.760         140.465         140.608         140.954    
          141.110         140.788         140.988         141.365         141.826         142.313         142.807         143.292         143.759         144.200    
          144.611         144.987         145.329         145.643         145.939         146.227         146.505         146.765         147.006         147.231    
          147.434         147.613         147.763         147.889         147.973         147.994         147.972         147.929         147.870         147.805    
          147.739         147.678         147.627         147.591         147.572         143.061         143.170         143.286         143.406         143.527    
          143.644         143.753         143.849         143.930         143.994         144.039         144.065         144.071         144.056         144.017    
          143.952         143.859         143.738         143.589         143.410         143.199         142.958         142.689         142.393         142.076    
          141.743         141.398         141.049         140.719         140.550         140.849         140.718         140.382         140.230         140.534    
          140.397         140.079         139.966         140.227         140.072         139.797         139.582         139.474         139.462         139.497    
          139.579         139.692         139.839         140.047         140.150         139.933         140.030         140.296         140.451         140.160    
          140.311         140.630         140.832         140.487         140.687         141.052         141.230         140.904         141.128         141.546    
          142.061         142.580         143.087         143.571         144.025         144.446         144.828         145.175         145.493         145.791    
          146.078         146.356         146.614         146.848         147.063         147.261         147.441         147.594         147.719         147.802    
          147.820         147.793         147.743         147.682         147.612         147.542         147.479         147.426         147.390         147.373    
          143.255         143.358         143.468         143.583         143.699         143.812         143.915         144.007         144.084         144.145    
          144.187         144.210         144.210         144.186         144.136         144.058         143.951         143.816         143.653         143.456    
          143.231         142.976         142.696         142.394         142.073         141.739         141.398         141.054         140.715         140.392    
          140.222         140.523         140.392         140.045         139.916         140.206         140.070         139.763         139.661         139.894    
          139.782         139.565         139.508         139.656         139.586         139.469         139.449         139.516         139.485         139.443    
          139.450         139.458         139.457         139.481         139.509         139.470         139.490         139.560         139.603         139.526    
          139.563         139.675         139.733         139.620         139.674         139.826         139.924         139.759         139.841         140.047    
          140.193         139.961         140.099         140.363         140.558         140.263         140.451         140.772         140.993         140.664    
          140.899         141.302         141.823         142.360         142.886         143.382         143.840         144.267         144.655         145.003    
          145.325         145.630         145.920         146.198         146.453         146.678         146.879         147.063         147.232         147.385    
          147.506         147.588         147.612         147.583         147.527         147.460         147.385         147.313         147.248         147.195    
          147.160         147.146         143.436         143.533         143.639         143.750         143.862         143.969         144.068         144.157    
          144.231         144.290         144.329         144.346         144.338         144.304         144.241         144.150         144.030         143.882    
          143.706         143.497         143.261         143.003         142.718         142.415         142.097         141.767         141.432         141.098    
          140.752         140.412         140.083         139.817         139.635         139.543         139.520         139.546         139.610         139.733    
          139.904         140.031         139.879         139.982         140.187         140.363         140.139         140.287         140.570         140.799    
          140.492         140.713         141.046         141.244         140.947         141.183         141.611         142.156         142.687         143.187    
          143.650         144.076         144.462         144.809         145.134         145.445         145.742         146.023         146.276         146.492    
          146.679         146.845         146.995         147.137         147.249         147.324         147.350         147.322         147.267         147.197    
          147.123         147.054         146.992         146.943         146.909         146.891         143.605         143.699         143.801         143.907    
          144.014         144.117         144.213         144.300         144.372         144.427         144.461         144.471         144.454         144.409    
          144.335         144.232         144.101         143.943         143.758         143.541         143.305         143.049         142.772         142.473    
          142.162         141.838         141.514         141.185         140.844         140.507         140.203         139.971         139.799         139.699    
          139.657         139.665         139.737         139.896         140.151         140.437         140.647         140.400         140.598         140.873    
          141.096         140.828         141.029         141.445         141.978         142.502         142.997         143.454         143.872         144.250    
          144.592         144.915         145.229         145.533         145.819         146.072         146.285         146.459         146.608         146.736    
          146.850         146.950         147.015         147.033         147.005         146.955         146.889         146.823         146.762         146.708    
          146.667         146.636         146.616         143.767         143.856         143.952         144.053         144.156         144.257         144.351    
          144.436         144.505         144.555         144.583         144.585         144.558         144.504         144.421         144.311         144.173    
          144.012         143.822         143.607         143.375         143.128         142.869         142.579         142.276         141.964         141.649    
          141.318         140.977         140.645         140.361         140.128         139.951         139.837         139.782         139.800         139.913    
          140.083         140.196         140.077         140.200         140.368         140.550         140.355         140.528         140.845         141.321    
          141.825         142.331         142.814         143.256         143.659         144.024         144.356         144.668         144.973         145.279    
          145.569         145.822         146.033         146.202         146.336         146.445         146.532         146.611         146.662         146.671    
          146.640         146.590         146.534         146.479         146.429         146.386         146.354         146.329         146.314         143.918    
          144.000         144.091         144.189         144.290         144.389         144.481         144.562         144.628         144.673         144.693    
          144.686         144.652         144.591         144.504         144.391         144.255         144.093         143.909         143.706         143.482    
          143.255         143.011         142.734         142.442         142.141         141.822         141.480         141.126         140.788         140.499    
          140.253         140.064         139.943         139.906         139.972         140.095         140.206         140.116         140.211         140.350    
          140.510         140.351         140.504         140.780         141.219         141.690         142.172         142.636         143.060         143.444    
          143.789         144.103         144.396         144.680         144.965         145.245         145.501         145.714         145.880         146.008    
          146.106         146.178         146.232         146.262         146.264         146.234         146.185         146.135         146.093         146.056    
          146.028         146.007         145.991         145.981         144.057         144.135         144.222         144.317         144.416         144.512    
          144.601         144.679         144.740         144.777         144.789         144.775         144.736         144.672         144.586         144.476    
          144.344         144.192         144.022         143.835         143.631         143.424         143.193         142.929         142.652         142.354    
          142.018         141.648         141.277         140.929         140.617         140.346         140.136         140.036         140.058         140.193    
          140.362         140.499         140.371         140.501         140.737         141.131         141.569         142.022         142.463         142.870    
          143.231         143.552         143.842         144.108         144.361         144.609         144.849         145.093         145.309         145.484    
          145.617         145.716         145.780         145.817         145.828         145.817         145.784         145.736         145.691         145.662    
          145.645         145.637         145.635         145.633         145.630         144.186         144.260         144.346         144.438         144.533    
          144.626         144.711         144.784         144.837         144.866         144.872         144.855         144.814         144.752         144.670    
          144.568         144.448         144.313         144.163         143.997         143.816         143.627         143.410         143.169         142.900    
          142.588         142.215         141.815         141.416         141.036         140.681         140.376         140.182         140.153         140.245    
          140.387         140.503         140.396         140.507         140.707         141.049         141.450         141.875         142.289         142.678    
          143.022         143.321         143.581         143.816         144.030         144.236         144.441         144.652         144.855         145.037    
          145.178         145.280         145.342         145.370         145.371         145.344         145.304         145.254         145.219         145.204    
          145.209         145.227         145.247         145.263         145.269         144.308         144.381         144.463         144.551         144.642    
          144.730         144.810         144.874         144.919         144.943         144.945         144.926         144.888         144.831         144.758    
          144.670         144.569         144.455         144.328         144.188         144.032         143.855         143.653         143.421         143.141    
          142.797         142.376         141.939         141.515         141.079         140.667         140.363         140.261         140.303         140.409    
          140.508         140.420         140.512         140.684         140.981         141.332         141.722         142.110         142.476         142.800    
          143.078         143.313         143.516         143.701         143.877         144.059         144.237         144.414         144.578         144.716    
          144.820         144.884         144.913         144.904         144.866         144.810         144.763         144.738         144.738         144.762    
          144.811         144.857         144.895         144.914         144.426         144.494         144.572         144.656         144.741         144.822    
          144.894         144.951         144.990         145.010         145.011         144.994         144.960         144.913         144.854         144.783    
          144.702         144.610         144.506         144.386         144.241         144.066         143.865         143.616         143.297         142.890    
          142.445         141.990         141.487         140.979         140.589         140.390         140.377         140.439         140.515         140.458    
          140.524         140.658         140.914         141.224         141.569         141.922         142.254         142.553         142.806         143.018    
          143.202         143.370         143.530         143.684         143.834         143.989         144.145         144.282         144.392         144.537    
          144.573         144.368         144.380         144.594         144.599         144.399         144.404         144.591         144.577         144.399    
          144.387         144.549         144.521         144.360         144.333         144.481         144.460         144.298         144.273         144.436    
          144.422         144.246         144.232         144.411         144.410         144.220         144.220         144.414         144.421         144.226    
          144.235         144.437         144.448         144.254         144.292         144.417         144.489         144.546         144.578         144.536    
          144.600         144.673         144.751         144.829         144.903         144.967         145.018         145.053         145.070         145.071    
          145.059         145.033         144.997         144.952         144.897         144.832         144.755         144.660         144.541         144.388    
          144.201         143.964         143.660         143.269         142.824         142.382         141.854         141.297         140.840         140.576    
          140.488         140.495         140.537         140.524         140.555         140.634         140.839         141.114         141.425         141.739    
          142.034         142.299         142.523         142.715         142.888         143.048         143.190         143.323         143.465         143.650    
          143.728         143.507         143.570         143.823         143.891         143.655         143.720         143.974         144.031         143.804    
          143.860         144.095         144.136         143.928         143.971         144.176         144.191         144.021         144.055         144.147    
          144.145         144.110         144.059         144.017         144.057         144.062         143.954         143.944         144.067         144.078    
          143.944         143.951         144.095         144.122         143.967         143.986         144.153         144.173         144.014         144.056    
          144.167         144.235         144.281         144.638         144.697         144.763         144.835         144.906         144.973         145.031    
          145.077         145.108         145.125         145.129         145.121         145.104         145.079         145.045         145.001         144.944    
          144.866         144.761         144.620         144.435         144.196         143.893         143.531         143.097         142.654         142.139    
          141.582         141.121         140.799         140.635         140.588         140.707         140.651         140.569         140.578         140.611    
          140.605         140.618         140.761         140.994         141.272         141.551         141.813         142.055         142.263         142.438    
          142.595         142.745         142.882         143.049         143.120         142.932         142.995         143.205         143.268         143.076    
          143.139         143.348         143.412         143.227         143.298         143.471         143.616         143.737         143.825         143.876    
          143.891         143.876         143.844         143.814         143.797         143.797         143.820         143.893         143.929         143.817    
          143.833         143.962         143.981         143.860         143.894         143.984         144.051         144.730         144.783         144.843    
          144.908         144.973         145.035         145.088         145.129         145.159         145.176         145.183         145.182         145.173    
          145.156         145.127         145.081         145.014         144.917         144.778         144.583         144.334         144.036         143.700    
          143.301         142.852         142.368         141.847         141.381         141.016         140.804         140.726         140.870         140.782    
          140.660         140.597         140.655         140.852         141.096         141.351         141.580         141.797         141.998         142.171    
          142.322         142.471         142.641         142.712         142.529         142.599         142.796         142.864         142.690         142.766    
          142.936         143.093         143.245         143.390         143.514         143.605         143.663         143.690         143.693         143.681    
          143.667         143.659         143.662         143.679         143.711         143.773         143.801         143.716         143.730         143.826    
          143.841         143.747         143.759         143.862         143.767         144.811         144.858         144.912         144.971         145.032    
          145.088         145.137         145.177         145.206         145.225         145.236         145.240         145.237         145.221         145.184    
          145.124         145.027         144.883         144.687         144.435         144.135         143.796         143.418         143.001         142.553    
          142.080         141.627         141.231         140.964         140.852         141.026         140.930         140.754         140.689         140.815    
          140.724         140.592         140.565         140.692         140.895         141.109         141.321         141.521         141.712         141.887    
          142.045         142.207         142.391         142.470         142.295         142.378         142.557         142.742         142.915         143.068    
          143.211         143.333         143.428         143.491         143.529         143.548         143.555         143.558         143.561         143.571    
          143.588         143.613         143.641         143.661         143.657         144.880         144.921         144.971         145.026         145.082    
          145.135         145.181         145.219         145.249         145.270         145.285         145.291         145.284         145.256         145.199    
          145.102         144.958         144.759         144.507         144.211         143.878         143.514         143.122         142.705         142.274    
          141.847         141.447         141.104         140.879         140.765         140.926         140.804         140.608         140.495         140.546    
          140.684         140.859         141.041         141.228         141.418         141.599         141.777         141.971         142.060         141.866    
          141.957         142.170         142.258         142.073         142.166         142.365         142.574         142.766         142.927         143.067    
          143.186         143.281         143.351         143.400         143.433         143.456         143.473         143.489         143.507         143.528    
          143.552         143.577         143.598         143.606         144.938         144.975         145.021         145.072         145.125         145.175    
          145.219         145.256         145.286         145.308         145.321         145.321         145.298         145.246         145.150         145.005    
          144.807         144.557         144.266         143.945         143.598         143.228         142.848         142.454         142.054         141.661    
          141.282         140.999         140.855         141.051         140.928         140.710         140.611         140.770         140.641         140.487    
          140.444         140.510         140.636         140.792         140.986         141.073         140.884         140.968         141.185         141.263    
          141.075         141.155         141.372         141.453         141.266         141.352         141.564         141.644         141.468         141.554    
          141.750         141.847         141.674         141.772         141.980         142.216         142.445         142.647         142.813         142.951    
          143.068         143.164         143.239         143.297         143.342         143.377         143.407         143.434         143.459         143.486    
          143.514         143.539         143.568         143.581         144.986         145.020         145.063         145.111         145.160         145.206    
          145.247         145.282         145.310         145.328         145.332         145.316         145.265         145.171         145.028         144.831    
          144.585         144.303         143.996         143.668         143.325         142.976         142.615         142.245         141.871         141.488    
          141.113         140.835         140.686         140.883         140.755         140.561         140.485         140.616         140.514         140.406    
          140.408         140.497         140.550         140.456         140.509         140.632         140.697         140.586         140.651         140.790    
          140.873         140.748         140.828         140.991         141.195         141.415         141.642         141.887         142.128         142.357    
          142.556         142.720         142.858         142.972         143.070         143.150         143.215         143.269         143.314         143.354    
          143.389         143.424         143.454         143.490         143.510         145.027         145.057         145.096         145.140         145.184    
          145.226         145.263         145.293         145.314         145.320         145.304         145.257         145.165         145.023         144.828    
          144.589         144.320         144.034         143.729         143.412         143.087         142.756         142.414         142.064         141.699    
          141.308         140.941         140.685         140.566         140.748         140.648         140.476         140.432         140.545         140.495    
          140.414         140.418         140.462         140.462         140.452         140.502         140.488         140.525         140.608         140.776    
          140.968         141.179         141.395         141.622         141.856         142.084         142.302         142.492         142.649         142.784    
          142.898         142.995         143.079         143.150         143.211         143.263         143.311         143.353         143.399         143.424    
          145.061         145.087         145.120         145.157         145.195         145.230         145.259         145.279         145.284         145.268    
          145.220         145.130         144.987         144.797         144.573         144.328         144.065         143.783         143.490         143.186    
          142.878         142.562         142.231         141.887         141.511         141.142         140.848         140.651         140.571         140.600    
          140.707         140.857         141.035         141.229         141.428         141.641         141.855         142.062         142.266         142.448    
          142.598         142.728         142.841         142.937         143.022         143.101         143.166         143.221         143.281         143.315    
          145.085         145.104         145.130         145.160         145.189         145.213         145.230         145.231         145.211         145.160    
          145.072         144.936         144.758         144.554         144.333         144.094         143.838         143.569         143.283         142.988    
          142.685         142.367         142.039         141.684         141.330         141.041         140.839         140.743         140.751         140.833    
          140.960         141.119         141.292         141.475         141.669         141.860         142.043         142.230         142.413         142.562    
          142.690         142.800         142.893         142.974         143.069         143.136         143.178         145.094         145.105         145.124    
          145.144         145.162         145.171         145.167         145.142         145.090         145.005         144.881         144.722         144.540    
          144.342         144.127         143.898         143.654         143.386         143.081         142.780         142.476         142.151         141.801    
          141.461         141.180         140.978         140.874         140.866         140.929         141.038         141.177         141.335         141.505    
          141.683         141.854         142.016         142.182         142.388         142.542         142.670         142.777         142.861         142.916    
          145.089         145.092         145.101         145.110         145.112         145.103         145.075         145.024         144.945         144.834    
          144.696         144.537         144.362         144.171         143.965         143.738         143.496         143.154         142.842         142.540    
          142.219         141.868         141.535         141.259         141.053         140.944         140.928         140.980         141.078         141.208    
          141.357         141.520         141.688         141.845         141.982         142.081         145.069         145.065         145.063         145.059    
          145.047         145.019         144.971         144.899         144.802         144.683         144.546         144.395         144.225         144.046    
          143.819         143.662         145.039         145.025         145.017         145.005         144.979         144.935         144.869         144.782    
          144.681         144.567         144.441         144.279         144.165         144.998         144.993         144.980         144.956         144.916    
          144.855         144.773         144.682         144.592         144.520    

 HEAD WILL BE SAVED ON UNIT 1020 AT END OF TIME STEP    1, STRESS PERIOD    2

 SFR PACKAGE (SFR) STAGES FOR EACH CONTROL VOLUME   PERIOD      2   STEP        1
 -------------------------------------------------------------------------------------------------------------
                                                                                      STREAMBED    STREAMBED  
   NUMBER   CELLID                  STAGE        DEPTH        WIDTH       GWF HEAD   CONDUCTANCE    GRADIENT  
 -------------------------------------------------------------------------------------------------------------
     1      (2,2565)              143.61       0.0000       0.0000       143.55       1016.1       5.84229E-02
     2      (2,2563)              143.50       1.08311E-03  2.0000       143.51       319.68      -1.30173E-02
     3      (2,2561)              143.45       4.61512E-03  2.0000       143.52       615.17      -6.22288E-02
     4      (2,2560)              143.46       8.04951E-03  2.0000       143.49       955.58      -3.44227E-02
     5      (2,2557)              143.46       9.71861E-03  2.0000       143.48       490.75      -2.15231E-02
     6      (2,2485)              143.46       1.10810E-02  2.0000       143.52       478.66      -6.02551E-02
     7      (2,2484)              143.43       1.29841E-02  2.0000       143.46       1093.8      -2.90895E-02
     8      (2,2481)              143.34       1.40640E-02  2.0000       143.43       60.480      -8.92650E-02
     9      (2,2479)              143.35       1.60087E-02  2.0000       143.42       862.27      -7.71429E-02
     10     (2,2478)              143.35       1.85684E-02  2.0000       143.39       978.05      -3.82127E-02
     11     (2,2399)              143.35       2.03238E-02  2.0000       143.46       371.52      -0.10684    
     12     (2,2396)              143.35       2.16681E-02  2.0000       143.39       584.06      -3.83937E-02
     13     (2,2394)              143.30       2.41810E-02  2.0000       143.40       998.78      -0.10081    
     14     (2,2393)              143.28       2.62787E-02  2.0000       143.37       98.496      -9.00206E-02
     15     (2,2304)              143.17       2.96671E-02  2.0000       143.37       917.57      -0.19692    
     16     (2,2301)              143.18       3.51016E-02  2.0000       143.34       910.66      -0.16962    
     17     (2,2300)              143.18       3.76950E-02  2.0000       143.46       65.664      -0.28117    
     18     (2,2389)              143.18       3.90374E-02  2.0000       143.27       812.16      -9.14248E-02
     19     (2,2386)              143.11       4.15896E-02  2.0000       143.24       870.91      -0.12393    
     20     (2,2385)              143.11       4.36543E-02  2.0000       143.28       278.21      -0.16186    
     21     (2,2296)              143.12       4.59548E-02  2.0000       143.33       603.07      -0.21749    
     22     (2,2293)              143.12       4.95519E-02  2.0000       143.29       893.38      -0.17495    
     23     (2,2292)              143.12       5.32307E-02  2.0000       143.30       884.74      -0.17229    
     24     (2,2289)              143.13       5.70740E-02  2.0000       143.33       910.66      -0.20388    
     25     (2,2288)              143.13       5.97219E-02  2.0000       143.50       153.79      -0.36624    
     26     (2,2286)              143.09       6.40294E-02  2.0000       143.55       781.06      -0.45168    
     27     (1,2283)              143.10       7.25740E-02  2.0000       143.68       889.92      -0.57752    
     28     (1,2282)              143.11       8.19361E-02  2.0000       143.70       877.82      -0.58896    
     29     (1,2279)              143.12       9.08989E-02  2.0000       143.74       884.74      -0.61779    
     30     (1,2278)              143.13       9.98813E-02  2.0000       143.79       896.83      -0.65999    
     31     (1,2275)              143.14       0.10549      2.0000       144.03       172.80      -0.89858    
     32     (1,2277)              143.14       0.10945      2.0000       143.67       730.94      -0.52999    
     33     (1,2276)              143.15       0.11542      2.0000       143.65       908.93      -0.50282    
     34     (1,2273)              143.15       0.12179      2.0000       143.69       891.65      -0.53434    
     35     (1,2272)              143.16       0.12692      2.0000       143.82       454.46      -0.65949    
     36     (1,2376)              143.16       0.13023      2.0000       143.64       442.37      -0.47867    
     37     (1,2373)              143.16       0.13380      2.0000       143.56       881.28      -0.39795    
     38     (1,2372)              143.17       0.13790      2.0000       143.52       881.28      -0.34945    
     39     (1,2369)              143.15       0.14134      2.0000       143.43       902.02      -0.28161    
     40     (1,2368)              142.70       0.14559      2.0000       143.26       806.98      -0.56094    
     41     (1,2370)              142.70       0.14849      2.0000       143.16       82.944      -0.46552    
     42     (1,2367)              142.20       0.15150      2.0000       142.73       902.02      -0.52825    
     43     (1,2366)              141.91       0.15718      2.0000       142.48       898.56      -0.57399    
     44     (1,2363)              141.38       0.16392      2.0000       142.18       876.10      -0.79196    
     45     (1,2362)              141.15       0.17215      2.0000       142.04       926.21      -0.89216    
     46     (1,2462)              140.80       0.17654      2.0000       142.05       5.1840      -1.2553     
     47     (1,2459)              140.61       0.18143      2.0000       141.49       1069.6      -0.87489    
     48     (1,2458)              140.62       0.18801      2.0000       141.61       362.88      -0.99079    
     49     (1,2460)              140.24       0.19317      2.0000       141.19       713.66      -0.95124    
     50     (1,2457)              140.25       0.19962      2.0000       141.16       705.02      -0.91315    
     51     (1,2538)              139.92       0.20482      2.0000       141.00       412.99      -1.0755     
     52     (1,2537)              139.93       0.21093      2.0000       140.80       983.23      -0.87348    
     53     (1,2539)              139.78       0.21587      2.0000       140.89       190.08      -1.1148     
     54     (1,2536)              139.76       0.22030      2.0000       140.62       886.46      -0.85966    
     55     (1,2614)              139.62       0.22614      2.0000       140.47       635.90      -0.85394    
     56     (1,2613)              139.59       0.23028      2.0000       140.50       435.46      -0.90916    
     57     (1,2615)              139.44       0.23504      2.0000       140.16       955.58      -0.72836    
     58     (1,2682)              139.26       0.24100      2.0000       140.04       884.74      -0.78394    
     59     (1,2684)              139.21       0.24616      2.0000       140.19       539.14      -0.98020    
     60     (1,2681)              139.14       0.25004      2.0000       140.04       447.55      -0.90002    
     61     (1,2762)              139.14       0.25446      2.0000       139.92       857.09      -0.77903    
     62     (1,2761)              139.10       0.25841      2.0000       139.93       364.61      -0.82663    
     63     (1,2763)              139.10       0.26162      2.0000       139.88       627.26      -0.78285    
     64     (1,2760)              138.92       0.26610      2.0000       139.56       978.05      -0.64236    
     65     (1,2759)              138.85       0.27083      2.0000       139.49       883.01      -0.64374    
     66     (1,2756)              138.77       0.27530      2.0000       139.40       903.74      -0.63327    
     67     (1,2755)              138.61       0.27997      2.0000       139.32       896.83      -0.70844    
     68     (1,2752)              138.61       0.28482      2.0000       139.31       910.66      -0.69528    
     69     (1,2751)              138.62       0.28990      2.0000       139.39       926.21      -0.76578    
     70     (1,2748)              138.62       0.29272      2.0000       139.77       38.016      -1.1475     
     71     (1,2831)              138.63       0.29520      2.0000       139.30       926.21      -0.67115    
     72     (1,2830)              138.63       0.29969      2.0000       139.27       927.94      -0.63777    
     73     (1,2827)              138.63       0.30288      2.0000       139.46       336.96      -0.82883    
     74     (1,2829)              138.64       0.30534      2.0000       139.31       585.79      -0.67711    
     75     (1,2828)              138.64       0.30864      2.0000       139.20       910.66      -0.56441    
     76     (1,2825)              138.64       0.31236      2.0000       139.21       910.66      -0.57253    
     77     (1,2824)              138.65       0.31504      2.0000       139.37       321.41      -0.72212    
     78     (1,2895)              138.65       0.31722      2.0000       139.29       589.25      -0.64664    
     79     (1,2892)              138.65       0.32020      2.0000       139.16       900.29      -0.51415    
     80     (1,2891)              138.65       0.32339      2.0000       139.14       927.94      -0.48241    
     81     (1,2888)              138.66       0.32638      2.0000       139.13       872.64      -0.47004    
     82     (1,2887)              138.66       0.32972      2.0000       139.13       1164.7      -0.47442    
     83     (1,2884)              138.66       0.33217      2.0000       139.51       190.08      -0.84659    
     84     (1,2819)              138.66       0.33453      2.0000       139.17       1031.6      -0.51016    
     85     (1,2818)              138.58       0.33687      2.0000       139.42       190.08      -0.84346    
     86     (1,2816)              138.58       0.33927      2.0000       139.11       1031.6      -0.52959    
     87     (1,2813)              138.32       0.34173      2.0000       139.29       190.08      -0.96377    
     88     (1,2739)              138.32       0.34437      2.0000       138.91       1031.6      -0.58344    
     89     (1,2738)              137.91       0.34713      2.0000       139.09       190.08      -1.1814     
     90     (1,2736)              137.91       0.35043      2.0000       138.65       1031.6      -0.74357    
     91     (1,2733)              137.56       0.35379      2.0000       138.89       190.08      -1.3258     
     92     (1,2667)              137.57       0.35739      2.0000       138.39       1031.6      -0.81848    
     93     (1,2666)              137.56       0.36089      2.0000       138.76       190.08      -1.1957     
     94     (1,2664)              137.47       0.36435      2.0000       138.24       1099.0      -0.76743    
     95     (1,2600)              137.27       0.36844      2.0000       138.28       421.63      -1.0127     
     96     (1,2597)              137.00       0.37220      2.0000       138.17       644.54      -1.1646     
     97     (1,2595)              137.01       0.37732      2.0000       137.89       981.50      -0.88251    
     98     (1,2520)              137.01       0.38104      2.0000       138.08       297.22      -1.0669     
     99     (1,2519)              137.01       0.38458      2.0000       138.03       803.52      -1.0144     
    100     (1,2517)              137.02       0.38969      2.0000       137.87       983.23      -0.84659    
    101     (1,2436)              137.02       0.39494      2.0000       137.86       1054.1      -0.83240    
    102     (1,2434)              137.03       0.39955      2.0000       138.03       632.45      -1.0024     
    103     (1,2435)              137.03       0.40413      2.0000       137.73       1263.2      -0.69785    
    104     (1,2438)              137.04       0.40784      2.0000       138.08       336.96      -1.0419     
    105     (1,2344)              137.04       0.41119      2.0000       137.89       910.66      -0.84616    
    106     (1,2342)              137.05       0.41512      2.0000       137.95       615.17      -0.90070    
    107     (1,2343)              137.05       0.41819      2.0000       138.11       457.92      -1.0653     
    108     (1,2251)              137.02       0.42208      2.0000       137.84       1016.1      -0.82249    
    109     (1,2249)              136.92       0.42676      2.0000       137.81       864.00      -0.89033    
    110     (1,2183)              136.79       0.43151      2.0000       137.72       934.85      -0.93129    
    111     (1,2181)              136.74       0.43643      2.0000       137.71       864.00      -0.97275    
    112     (1,2114)              136.74       0.44125      2.0000       137.72       872.64      -0.97472    
    113     (1,2112)              136.75       0.44609      2.0000       137.74       867.46      -0.98944    
    114     (1,2044)              136.75       0.44993      2.0000       137.93       430.27      -1.1769     
    115     (1,2043)              136.75       0.45281      2.0000       137.72       546.05      -0.96235    
    116     (1,2041)              136.74       0.45667      2.0000       137.58       1021.2      -0.84064    
    117     (1,1972)              136.74       0.45945      2.0000       137.71       148.61      -0.97353    
    118     (1,1969)              136.51       0.46213      2.0000       137.39       943.49      -0.87749    
    119     (1,1967)              136.52       0.46551      2.0000       137.30       508.03      -0.78619    
    120     (1,1966)              136.45       0.46809      2.0000       137.41       565.06      -0.96056    
    121     (1,1893)              136.37       0.47146      2.0000       137.19       855.36      -0.81388    
    122     (1,1894)              136.37       0.47381      2.0000       137.21       200.45      -0.84021    
    123     (1,1892)              136.38       0.47578      2.0000       137.01       888.19      -0.63179    
    124     (1,1895)              136.37       0.47897      2.0000       137.07       888.19      -0.69873    
    125     (1,1896)              136.37       0.48267      2.0000       137.40       739.58      -1.0232     
    126     (1,1819)              136.38       0.48520      2.0000       137.30       205.63      -0.92696    
    127     (1,1822)              136.37       0.48858      2.0000       137.54       924.48      -1.1703     
    128     (1,1820)              136.13       0.49432      2.0000       137.33       907.20      -1.1965     
    129     (1,1745)              136.14       0.50112      2.0000       137.45       1152.6      -1.3105     
    130     (1,1742)              136.07       0.50727      2.0000       137.03       888.19      -0.95880    
    131     (1,1741)              136.07       0.51121      2.0000       136.80       926.21      -0.72710    
    132     (1,1738)              135.98       0.51454      2.0000       136.67       910.66      -0.68562    
    133     (1,1737)              135.99       0.51700      2.0000       136.76       433.73      -0.76958    
    134     (1,1735)              135.96       0.51923      2.0000       136.59       860.54      -0.62878    
    135     (1,1732)              135.96       0.52106      2.0000       136.73       229.82      -0.77365    
    136     (1,1653)              135.90       0.52287      2.0000       136.44       993.60      -0.53830    
    137     (1,1651)              135.89       0.52561      2.0000       136.41       1054.1      -0.51995    
    138     (1,1654)              135.89       0.52833      2.0000       136.49       870.91      -0.60650    
    139     (1,1655)              135.85       0.53169      2.0000       136.68       974.59      -0.82961    
    140     (1,1658)              135.85       0.53473      2.0000       137.33       273.02      -1.4783     
    141     (1,1548)              135.86       0.53881      2.0000       137.22       903.74      -1.3658     
    142     (1,1546)              135.86       0.54452      2.0000       137.74       571.97      -1.8708     
    143     (1,1543)              135.87       0.54950      2.0000       137.14       746.50      -1.2743     
    144     (1,1453)              135.87       0.55358      2.0000       137.96       342.14      -2.0905     
    145     (1,1452)              135.88       0.55860      2.0000       137.35       914.11      -1.4690     
    146     (1,1449)              135.88       0.56481      2.0000       137.23       914.11      -1.3421     
    147     (1,1448)              135.89       0.56897      2.0000       137.55       302.40      -1.6561     
    148     (1,1538)              135.85       0.57173      2.0000       136.83       668.74      -0.97887    
    149     (1,1535)              135.86       0.57560      2.0000       136.85       969.41      -0.99606    
    150     (1,1537)              135.84       0.57950      2.0000       136.55       955.58      -0.70743    
    151     (1,1647)              135.84       0.58235      2.0000       136.42       910.66      -0.57988    
    152     (1,1649)              135.84       0.58496      2.0000       136.47       931.39      -0.62314    
    153     (1,1648)              135.85       0.58774      2.0000       136.52       896.83      -0.67175    
    154     (1,1645)              135.80       0.59089      2.0000       136.59       940.03      -0.78717    
    155     (1,1644)              135.72       0.59407      2.0000       136.69       648.00      -0.96171    
    156     (1,1642)              135.66       0.59660      2.0000       136.76       421.63      -1.1042     
    157     (1,1639)              135.66       0.59989      2.0000       136.68       933.12      -1.0188     
    158     (1,1638)              135.66       0.60322      2.0000       136.89       400.90      -1.2276     
    159     (1,1640)              135.67       0.60588      2.0000       136.79       587.52      -1.1255     
    160     (1,1637)              135.67       0.60961      2.0000       136.73       910.66      -1.0603     
    161     (1,1636)              135.67       0.61398      2.0000       136.76       872.64      -1.0841     
    162     (1,1633)              135.68       0.61831      2.0000       136.79       865.73      -1.1070     
    163     (1,1632)              135.67       0.62269      2.0000       136.79       870.91      -1.1182     
    164     (1,1629)              135.68       0.62707      2.0000       136.79       874.37      -1.1092     
    165     (1,1628)              135.68       0.63139      2.0000       136.79       865.73      -1.1054     
    166     (1,1625)              135.64       0.63573      2.0000       136.77       870.91      -1.1323     
    167     (1,1624)              135.61       0.64017      2.0000       136.76       879.55      -1.1485     
    168     (1,1621)              135.61       0.64472      2.0000       136.81       881.28      -1.1919     
    169     (1,1620)              135.62       0.64951      2.0000       136.87       900.29      -1.2478     
    170     (1,1617)              135.62       0.65375      2.0000       137.29       487.30      -1.6642     
    171     (1,1615)              135.56       0.65685      2.0000       136.88       461.38      -1.3217     
    172     (1,1614)              135.56       0.66063      2.0000       136.75       946.94      -1.1888     
    173     (1,1611)              135.56       0.66499      2.0000       137.07       589.25      -1.5073     
    174     (1,1525)              135.56       0.66802      2.0000       136.83       406.08      -1.2731     
    175     (1,1524)              135.44       0.67160      2.0000       136.63       965.95      -1.1859     
    176     (1,1521)              135.45       0.67607      2.0000       137.08       577.15      -1.6315     
    177     (1,1519)              135.45       0.67923      2.0000       136.71       428.54      -1.2604     
    178     (1,1518)              135.45       0.68271      2.0000       136.66       905.47      -1.2082     
    179     (1,1515)              135.46       0.68728      2.0000       137.43       539.14      -1.9722     
    180     (1,1431)              135.46       0.69192      2.0000       136.77       864.00      -1.3098     
    181     (1,1429)              135.47       0.69637      2.0000       136.74       774.14      -1.2757     
    182     (1,1432)              135.43       0.69957      2.0000       136.51       502.85      -1.0756     
    183     (1,1353)              135.42       0.70256      2.0000       136.41       907.20      -0.98548    
    184     (1,1351)              135.43       0.70622      2.0000       136.40       883.01      -0.97758    
    185     (1,1274)              135.43       0.70983      2.0000       136.40       902.02      -0.97284    
    186     (1,1272)              135.42       0.71341      2.0000       136.37       900.29      -0.94964    
    187     (1,1194)              135.10       0.71731      2.0000       136.22       927.94      -1.1192     
    188     (1,1192)              134.99       0.72164      2.0000       136.25       853.63      -1.2600     
    189     (1,1189)              134.99       0.72427      2.0000       136.69       122.69      -1.6987     
    190     (1,1111)              134.90       0.72719      2.0000       136.13       991.87      -1.2340     
    191     (1,1109)              134.90       0.73135      2.0000       136.21       628.99      -1.3047     
    192     (1,1108)              134.90       0.73417      2.0000       136.50       361.15      -1.5926     
    193     (1,1030)              134.91       0.73757      2.0000       136.04       979.78      -1.1288     
    194     (1,1028)              134.91       0.74195      2.0000       136.11       889.92      -1.2029     
    195     (1,950)               134.91       0.74471      2.0000       136.53       186.62      -1.6201     
    196     (1,947)               134.82       0.74741      2.0000       136.10       813.89      -1.2868     
    197     (1,945)               134.82       0.75101      2.0000       136.21       546.05      -1.3873     
    198     (1,944)               134.82       0.75467      2.0000       136.10       848.45      -1.2725     
    199     (1,866)               134.83       0.75785      2.0000       136.30       354.24      -1.4752     
    200     (1,863)               134.83       0.76100      2.0000       136.16       803.52      -1.3328     
    201     (1,861)               134.83       0.76474      2.0000       136.19       608.26      -1.3526     
    202     (1,860)               134.84       0.76789      2.0000       136.33       521.86      -1.4914     
    203     (1,782)               134.84       0.77152      2.0000       136.14       822.53      -1.3025     
    204     (1,779)               134.83       0.77446      2.0000       136.55       252.29      -1.7172     
    205     (1,777)               134.84       0.77815      2.0000       136.13       1130.1      -1.2915     
    206     (1,700)               134.84       0.78103      2.0000       136.59       12.096      -1.7446     
    207     (1,699)               134.84       0.78389      2.0000       136.12       1138.8      -1.2763     
    208     (1,697)               134.85       0.78722      2.0000       136.43       169.34      -1.5868     
    209     (1,694)               134.85       0.79007      2.0000       136.15       927.94      -1.3008     
    210     (1,618)               134.78       0.79369      2.0000       136.18       483.84      -1.3990     
    211     (1,617)               134.79       0.79655      2.0000       136.19       578.88      -1.4076     
    212     (1,615)               134.79       0.80009      2.0000       136.00       855.36      -1.2069     
    213     (1,612)               134.79       0.80310      2.0000       136.30       361.15      -1.5058     
    214     (1,537)               134.80       0.80611      2.0000       135.91       936.58      -1.1105     
    215     (1,535)               134.63       0.80954      2.0000       135.85       627.26      -1.2196     
    216     (1,534)               134.63       0.81320      2.0000       135.83       976.32      -1.1976     
    217     (1,531)               134.64       0.81546      2.0000       136.43       15.552      -1.7904     
    218     (1,457)               134.64       0.81773      2.0000       135.76       1042.0      -1.1267     
    219     (1,455)               134.64       0.82187      2.0000       135.65       1024.7      -1.0049     
    220     (1,382)               134.64       0.82479      2.0000       136.00       388.80      -1.3560     
    221     (1,381)               134.65       0.82762      2.0000       135.71       927.94      -1.0613     
    222     (1,378)               134.65       0.83120      2.0000       135.70       889.92      -1.0490     
    223     (1,377)               134.65       0.83485      2.0000       135.77       919.30      -1.1188     
    224     (1,375)               134.66       0.83716      2.0000       135.99       160.70      -1.3354     
    225     (1,372)               134.66       0.83965      2.0000       135.75       1038.5      -1.0873     
    226     (1,371)               134.66       0.84260      2.0000       136.09       326.59      -1.4300     
    227     (1,299)               134.66       0.84494      2.0000       135.81       701.57      -1.1422     
    228     (1,296)               134.67       0.84829      2.0000       135.79       907.20      -1.1248     
    229     (1,294)               134.67       0.85045      2.0000       135.98       119.23      -1.3114     
    230     (1,293)               134.67       0.85245      2.0000       135.69       921.02      -1.0133     
    231     (1,290)               134.68       0.85581      2.0000       135.70       884.74      -1.0225     
    232     (1,289)               134.68       0.85936      2.0000       135.83       908.93      -1.1476     
    233     (1,286)               134.68       0.86160      2.0000       136.30       114.05      -1.6166     
    234     (1,250)               134.68       0.86345      2.0000       135.74       789.70      -1.0541     
    235     (1,249)               134.69       0.86679      2.0000       135.72       979.78      -1.0320     
    236     (1,246)               134.46       0.86971      2.0000       136.01       387.07      -1.5487     
    237     (1,244)               134.38       0.87214      2.0000       135.54       644.54      -1.1574     
    238     (1,243)               134.16       0.87548      2.0000       135.57       786.24      -1.4108     
    239     (1,209)               134.16       0.87843      2.0000       135.48       402.62      -1.3217     
    240     (1,206)               134.16       0.88128      2.0000       135.45       819.07      -1.2897     
    241     (1,204)               134.16       0.88407      2.0000       135.41       402.62      -1.2508     
    242     (1,203)               134.17       0.88677      2.0000       135.40       819.07      -1.2287     
    243     (1,171)               134.17       0.88943      2.0000       135.39       399.17      -1.2202     
    244     (1,168)               134.17       0.89234      2.0000       135.30       1017.8      -1.1300     
    245     (1,166)               134.17       0.89452      2.0000       135.54       57.024      -1.3672     
    246     (1,165)               134.18       0.89688      2.0000       135.25       1164.7      -1.0758     
    247     (1,135)               134.18       0.89923      2.0000       135.52       57.024      -1.3433     
    248     (1,132)               134.18       0.90150      2.0000       135.22       1164.7      -1.0362     
    249     (1,130)               134.18       0.90376      2.0000       135.49       57.024      -1.3076     
    250     (1,129)               134.19       0.90596      2.0000       135.20       1164.7      -1.0103     
    251     (1,101)               134.19       0.90816      2.0000       135.45       57.024      -1.2659     
    252     (1,98)                134.19       0.91030      2.0000       135.17       1164.7      -0.98456    
    253     (1,96)                134.19       0.91243      2.0000       135.42       57.024      -1.2227     
    254     (1,95)                134.19       0.91450      2.0000       135.15       1164.7      -0.95498    
    255     (1,69)                134.20       0.91656      2.0000       135.37       57.024      -1.1740     
    256     (1,66)                134.20       0.91857      2.0000       135.12       1178.5      -0.92434    
    257     (1,65)                134.20       0.92060      2.0000       135.70       48.384      -1.4962     
    258     (1,63)                134.19       0.92233      2.0000       135.06       1061.0      -0.86880    
    259     (1,60)                134.19       0.92460      2.0000       135.53       288.58      -1.3349     
    260     (1,36)                134.08       0.92676      2.0000       135.00       934.85      -0.92205    
    261     (1,35)                134.08       0.92908      2.0000       135.42       357.70      -1.3367     
    262     (1,33)                134.08       0.93106      2.0000       135.02       708.48      -0.94149    
    263     (1,30)                134.08       0.93358      2.0000       135.33       634.18      -1.2494     
    264     (1,8)                 134.09       0.93602      2.0000       135.15       589.25      -1.0640     
    265     (1,7)                 134.09       0.93864      2.0000       135.50       634.18      -1.4106     
    266     (1,5)                 134.09       0.94036      2.0000       135.66       69.120      -1.5686     
 -------------------------------------------------------------------------------------------------------------




  SFR BUDGET FOR ENTIRE MODEL AT END OF TIME STEP    1, STRESS PERIOD   2
  ------------------------------------------------------------------------------

     CUMULATIVE SFR      L**3       RATES FOR THIS TIME STEP      L**3/T
     ------------------                 ------------------------

           IN:                                      IN:
           ---                                      ---
                 GWF =     5166740.9429                   GWF =      164458.5964
            RAINFALL =           0.0000              RAINFALL =           0.0000
         EVAPORATION =           0.0000           EVAPORATION =           0.0000
              RUNOFF =           0.0000                RUNOFF =           0.0000
          EXT-INFLOW =           0.0000            EXT-INFLOW =           0.0000
         EXT-OUTFLOW =           0.0000           EXT-OUTFLOW =           0.0000
             STORAGE =           0.0000               STORAGE =           0.0000

            TOTAL IN =     5166740.9429              TOTAL IN =      164458.5964

          OUT:                                     OUT:
          ----                                     ----
                 GWF =           0.0000                   GWF =           0.0000
            RAINFALL =           0.0000              RAINFALL =           0.0000
         EVAPORATION =           0.0000           EVAPORATION =           0.0000
              RUNOFF =           0.0000                RUNOFF =           0.0000
          EXT-INFLOW =           0.0000            EXT-INFLOW =           0.0000
         EXT-OUTFLOW =     5166740.9429           EXT-OUTFLOW =      164458.5964
             STORAGE =           0.0000               STORAGE =           0.0000

           TOTAL OUT =     5166740.9429             TOTAL OUT =      164458.5964

            IN - OUT =           0.0000              IN - OUT =           0.0000

 PERCENT DISCREPANCY =           0.00     PERCENT DISCREPANCY =           0.00




         TIME SUMMARY AT END OF TIME STEP    1 IN STRESS PERIOD    2
                    SECONDS     MINUTES      HOURS       DAYS        YEARS
                    -----------------------------------------------------------
   TIME STEP LENGTH 2.62800E+06  43800.      730.00      30.417     8.32763E-02
 STRESS PERIOD TIME 2.62800E+06  43800.      730.00      30.417     8.32763E-02
         TOTAL TIME 2.71440E+06  45240.      754.00      31.417     8.60141E-02


end timestep


start timestep kper="2" kstp="2" mode="normal"

 UBDSV1 SAVING           STO-SS ON UNIT   1019 AT TIME STEP      2, STRESS PERIOD      2
 UBDSV1 SAVING           STO-SY ON UNIT   1019 AT TIME STEP      2, STRESS PERIOD      2
 UBDSV1 SAVING     FLOW-JA-FACE ON UNIT   1019 AT TIME STEP      2, STRESS PERIOD      2
 UBDSV06 SAVING              GHB IN MODEL EXPERIMENTAL     PACKAGE EXPERIMENTAL    CONNECTED TO MODEL EXPERIMENTAL     PACKAGE GHB              ON UNIT   1019 AT TIME STEP      2, STRESS PERIOD      2
 UBDSV06 SAVING              RCH IN MODEL EXPERIMENTAL     PACKAGE EXPERIMENTAL    CONNECTED TO MODEL EXPERIMENTAL     PACKAGE RCH              ON UNIT   1019 AT TIME STEP      2, STRESS PERIOD      2
 UBDSV06 SAVING              SFR IN MODEL EXPERIMENTAL     PACKAGE EXPERIMENTAL    CONNECTED TO MODEL EXPERIMENTAL     PACKAGE SFR              ON UNIT   1019 AT TIME STEP      2, STRESS PERIOD      2
 UBDSV06 SAVING     FLOW-JA-FACE IN MODEL EXPERIMENTAL     PACKAGE SFR             CONNECTED TO MODEL EXPERIMENTAL     PACKAGE SFR              ON UNIT   1015 AT TIME STEP      2, STRESS PERIOD      2
 UBDSV06 SAVING              GWF IN MODEL EXPERIMENTAL     PACKAGE SFR             CONNECTED TO MODEL EXPERIMENTAL     PACKAGE EXPERIMENTAL     ON UNIT   1015 AT TIME STEP      2, STRESS PERIOD      2
 UBDSV06 SAVING         RAINFALL IN MODEL EXPERIMENTAL     PACKAGE SFR             CONNECTED TO MODEL EXPERIMENTAL     PACKAGE SFR              ON UNIT   1015 AT TIME STEP      2, STRESS PERIOD      2
 UBDSV06 SAVING      EVAPORATION IN MODEL EXPERIMENTAL     PACKAGE SFR             CONNECTED TO MODEL EXPERIMENTAL     PACKAGE SFR              ON UNIT   1015 AT TIME STEP      2, STRESS PERIOD      2
 UBDSV06 SAVING           RUNOFF IN MODEL EXPERIMENTAL     PACKAGE SFR             CONNECTED TO MODEL EXPERIMENTAL     PACKAGE SFR              ON UNIT   1015 AT TIME STEP      2, STRESS PERIOD      2
 UBDSV06 SAVING       EXT-INFLOW IN MODEL EXPERIMENTAL     PACKAGE SFR             CONNECTED TO MODEL EXPERIMENTAL     PACKAGE SFR              ON UNIT   1015 AT TIME STEP      2, STRESS PERIOD      2
 UBDSV06 SAVING      EXT-OUTFLOW IN MODEL EXPERIMENTAL     PACKAGE SFR             CONNECTED TO MODEL EXPERIMENTAL     PACKAGE SFR              ON UNIT   1015 AT TIME STEP      2, STRESS PERIOD      2
 UBDSV06 SAVING          STORAGE IN MODEL EXPERIMENTAL     PACKAGE SFR             CONNECTED TO MODEL EXPERIMENTAL     PACKAGE SFR              ON UNIT   1015 AT TIME STEP      2, STRESS PERIOD      2

 HEAD WILL BE SAVED ON UNIT 1020 AT END OF TIME STEP    2, STRESS PERIOD    2

end timestep


start timestep kper="2" kstp="3" mode="normal"

 UBDSV1 SAVING           STO-SS ON UNIT   1019 AT TIME STEP      3, STRESS PERIOD      2
 UBDSV1 SAVING           STO-SY ON UNIT   1019 AT TIME STEP      3, STRESS PERIOD      2
 UBDSV1 SAVING     FLOW-JA-FACE ON UNIT   1019 AT TIME STEP      3, STRESS PERIOD      2
 UBDSV06 SAVING              GHB IN MODEL EXPERIMENTAL     PACKAGE EXPERIMENTAL    CONNECTED TO MODEL EXPERIMENTAL     PACKAGE GHB              ON UNIT   1019 AT TIME STEP      3, STRESS PERIOD      2
 UBDSV06 SAVING              RCH IN MODEL EXPERIMENTAL     PACKAGE EXPERIMENTAL    CONNECTED TO MODEL EXPERIMENTAL     PACKAGE RCH              ON UNIT   1019 AT TIME STEP      3, STRESS PERIOD      2
 UBDSV06 SAVING              SFR IN MODEL EXPERIMENTAL     PACKAGE EXPERIMENTAL    CONNECTED TO MODEL EXPERIMENTAL     PACKAGE SFR              ON UNIT   1019 AT TIME STEP      3, STRESS PERIOD      2
 UBDSV06 SAVING     FLOW-JA-FACE IN MODEL EXPERIMENTAL     PACKAGE SFR             CONNECTED TO MODEL EXPERIMENTAL     PACKAGE SFR              ON UNIT   1015 AT TIME STEP      3, STRESS PERIOD      2
 UBDSV06 SAVING              GWF IN MODEL EXPERIMENTAL     PACKAGE SFR             CONNECTED TO MODEL EXPERIMENTAL     PACKAGE EXPERIMENTAL     ON UNIT   1015 AT TIME STEP      3, STRESS PERIOD      2
 UBDSV06 SAVING         RAINFALL IN MODEL EXPERIMENTAL     PACKAGE SFR             CONNECTED TO MODEL EXPERIMENTAL     PACKAGE SFR              ON UNIT   1015 AT TIME STEP      3, STRESS PERIOD      2
 UBDSV06 SAVING      EVAPORATION IN MODEL EXPERIMENTAL     PACKAGE SFR             CONNECTED TO MODEL EXPERIMENTAL     PACKAGE SFR              ON UNIT   1015 AT TIME STEP      3, STRESS PERIOD      2
 UBDSV06 SAVING           RUNOFF IN MODEL EXPERIMENTAL     PACKAGE SFR             CONNECTED TO MODEL EXPERIMENTAL     PACKAGE SFR              ON UNIT   1015 AT TIME STEP      3, STRESS PERIOD      2
 UBDSV06 SAVING       EXT-INFLOW IN MODEL EXPERIMENTAL     PACKAGE SFR             CONNECTED TO MODEL EXPERIMENTAL     PACKAGE SFR              ON UNIT   1015 AT TIME STEP      3, STRESS PERIOD      2
 UBDSV06 SAVING      EXT-OUTFLOW IN MODEL EXPERIMENTAL     PACKAGE SFR             CONNECTED TO MODEL EXPERIMENTAL     PACKAGE SFR              ON UNIT   1015 AT TIME STEP      3, STRESS PERIOD      2
 UBDSV06 SAVING          STORAGE IN MODEL EXPERIMENTAL     PACKAGE SFR             CONNECTED TO MODEL EXPERIMENTAL     PACKAGE SFR              ON UNIT   1015 AT TIME STEP      3, STRESS PERIOD      2

 HEAD WILL BE SAVED ON UNIT 1020 AT END OF TIME STEP    3, STRESS PERIOD    2

end timestep


start timestep kper="2" kstp="4" mode="normal"

 UBDSV1 SAVING           STO-SS ON UNIT   1019 AT TIME STEP      4, STRESS PERIOD      2
 UBDSV1 SAVING           STO-SY ON UNIT   1019 AT TIME STEP      4, STRESS PERIOD      2
 UBDSV1 SAVING     FLOW-JA-FACE ON UNIT   1019 AT TIME STEP      4, STRESS PERIOD      2
 UBDSV06 SAVING              GHB IN MODEL EXPERIMENTAL     PACKAGE EXPERIMENTAL    CONNECTED TO MODEL EXPERIMENTAL     PACKAGE GHB              ON UNIT   1019 AT TIME STEP      4, STRESS PERIOD      2
 UBDSV06 SAVING              RCH IN MODEL EXPERIMENTAL     PACKAGE EXPERIMENTAL    CONNECTED TO MODEL EXPERIMENTAL     PACKAGE RCH              ON UNIT   1019 AT TIME STEP      4, STRESS PERIOD      2
 UBDSV06 SAVING              SFR IN MODEL EXPERIMENTAL     PACKAGE EXPERIMENTAL    CONNECTED TO MODEL EXPERIMENTAL     PACKAGE SFR              ON UNIT   1019 AT TIME STEP      4, STRESS PERIOD      2
 UBDSV06 SAVING     FLOW-JA-FACE IN MODEL EXPERIMENTAL     PACKAGE SFR             CONNECTED TO MODEL EXPERIMENTAL     PACKAGE SFR              ON UNIT   1015 AT TIME STEP      4, STRESS PERIOD      2
 UBDSV06 SAVING              GWF IN MODEL EXPERIMENTAL     PACKAGE SFR             CONNECTED TO MODEL EXPERIMENTAL     PACKAGE EXPERIMENTAL     ON UNIT   1015 AT TIME STEP      4, STRESS PERIOD      2
 UBDSV06 SAVING         RAINFALL IN MODEL EXPERIMENTAL     PACKAGE SFR             CONNECTED TO MODEL EXPERIMENTAL     PACKAGE SFR              ON UNIT   1015 AT TIME STEP      4, STRESS PERIOD      2
 UBDSV06 SAVING      EVAPORATION IN MODEL EXPERIMENTAL     PACKAGE SFR             CONNECTED TO MODEL EXPERIMENTAL     PACKAGE SFR              ON UNIT   1015 AT TIME STEP      4, STRESS PERIOD      2
 UBDSV06 SAVING           RUNOFF IN MODEL EXPERIMENTAL     PACKAGE SFR             CONNECTED TO MODEL EXPERIMENTAL     PACKAGE SFR              ON UNIT   1015 AT TIME STEP      4, STRESS PERIOD      2
 UBDSV06 SAVING       EXT-INFLOW IN MODEL EXPERIMENTAL     PACKAGE SFR             CONNECTED TO MODEL EXPERIMENTAL     PACKAGE SFR              ON UNIT   1015 AT TIME STEP      4, STRESS PERIOD      2
 UBDSV06 SAVING      EXT-OUTFLOW IN MODEL EXPERIMENTAL     PACKAGE SFR             CONNECTED TO MODEL EXPERIMENTAL     PACKAGE SFR              ON UNIT   1015 AT TIME STEP      4, STRESS PERIOD      2
 UBDSV06 SAVING          STORAGE IN MODEL EXPERIMENTAL     PACKAGE SFR             CONNECTED TO MODEL EXPERIMENTAL     PACKAGE SFR              ON UNIT   1015 AT TIME STEP      4, STRESS PERIOD      2

 HEAD WILL BE SAVED ON UNIT 1020 AT END OF TIME STEP    4, STRESS PERIOD    2

end timestep


start timestep kper="2" kstp="5" mode="normal"

 UBDSV1 SAVING           STO-SS ON UNIT   1019 AT TIME STEP      5, STRESS PERIOD      2
 UBDSV1 SAVING           STO-SY ON UNIT   1019 AT TIME STEP      5, STRESS PERIOD      2
 UBDSV1 SAVING     FLOW-JA-FACE ON UNIT   1019 AT TIME STEP      5, STRESS PERIOD      2
 UBDSV06 SAVING              GHB IN MODEL EXPERIMENTAL     PACKAGE EXPERIMENTAL    CONNECTED TO MODEL EXPERIMENTAL     PACKAGE GHB              ON UNIT   1019 AT TIME STEP      5, STRESS PERIOD      2
 UBDSV06 SAVING              RCH IN MODEL EXPERIMENTAL     PACKAGE EXPERIMENTAL    CONNECTED TO MODEL EXPERIMENTAL     PACKAGE RCH              ON UNIT   1019 AT TIME STEP      5, STRESS PERIOD      2
 UBDSV06 SAVING              SFR IN MODEL EXPERIMENTAL     PACKAGE EXPERIMENTAL    CONNECTED TO MODEL EXPERIMENTAL     PACKAGE SFR              ON UNIT   1019 AT TIME STEP      5, STRESS PERIOD      2
 UBDSV06 SAVING     FLOW-JA-FACE IN MODEL EXPERIMENTAL     PACKAGE SFR             CONNECTED TO MODEL EXPERIMENTAL     PACKAGE SFR              ON UNIT   1015 AT TIME STEP      5, STRESS PERIOD      2
 UBDSV06 SAVING              GWF IN MODEL EXPERIMENTAL     PACKAGE SFR             CONNECTED TO MODEL EXPERIMENTAL     PACKAGE EXPERIMENTAL     ON UNIT   1015 AT TIME STEP      5, STRESS PERIOD      2
 UBDSV06 SAVING         RAINFALL IN MODEL EXPERIMENTAL     PACKAGE SFR             CONNECTED TO MODEL EXPERIMENTAL     PACKAGE SFR              ON UNIT   1015 AT TIME STEP      5, STRESS PERIOD      2
 UBDSV06 SAVING      EVAPORATION IN MODEL EXPERIMENTAL     PACKAGE SFR             CONNECTED TO MODEL EXPERIMENTAL     PACKAGE SFR              ON UNIT   1015 AT TIME STEP      5, STRESS PERIOD      2
 UBDSV06 SAVING           RUNOFF IN MODEL EXPERIMENTAL     PACKAGE SFR             CONNECTED TO MODEL EXPERIMENTAL     PACKAGE SFR              ON UNIT   1015 AT TIME STEP      5, STRESS PERIOD      2
 UBDSV06 SAVING       EXT-INFLOW IN MODEL EXPERIMENTAL     PACKAGE SFR             CONNECTED TO MODEL EXPERIMENTAL     PACKAGE SFR              ON UNIT   1015 AT TIME STEP      5, STRESS PERIOD      2
 UBDSV06 SAVING      EXT-OUTFLOW IN MODEL EXPERIMENTAL     PACKAGE SFR             CONNECTED TO MODEL EXPERIMENTAL     PACKAGE SFR              ON UNIT   1015 AT TIME STEP      5, STRESS PERIOD      2
 UBDSV06 SAVING          STORAGE IN MODEL EXPERIMENTAL     PACKAGE SFR             CONNECTED TO MODEL EXPERIMENTAL     PACKAGE SFR              ON UNIT   1015 AT TIME STEP      5, STRESS PERIOD      2

 HEAD WILL BE SAVED ON UNIT 1020 AT END OF TIME STEP    5, STRESS PERIOD    2

end timestep


start timestep kper="2" kstp="6" mode="normal"

 UBDSV1 SAVING           STO-SS ON UNIT   1019 AT TIME STEP      6, STRESS PERIOD      2
 UBDSV1 SAVING           STO-SY ON UNIT   1019 AT TIME STEP      6, STRESS PERIOD      2
 UBDSV1 SAVING     FLOW-JA-FACE ON UNIT   1019 AT TIME STEP      6, STRESS PERIOD      2
 UBDSV06 SAVING              GHB IN MODEL EXPERIMENTAL     PACKAGE EXPERIMENTAL    CONNECTED TO MODEL EXPERIMENTAL     PACKAGE GHB              ON UNIT   1019 AT TIME STEP      6, STRESS PERIOD      2
 UBDSV06 SAVING              RCH IN MODEL EXPERIMENTAL     PACKAGE EXPERIMENTAL    CONNECTED TO MODEL EXPERIMENTAL     PACKAGE RCH              ON UNIT   1019 AT TIME STEP      6, STRESS PERIOD      2
 UBDSV06 SAVING              SFR IN MODEL EXPERIMENTAL     PACKAGE EXPERIMENTAL    CONNECTED TO MODEL EXPERIMENTAL     PACKAGE SFR              ON UNIT   1019 AT TIME STEP      6, STRESS PERIOD      2
 UBDSV06 SAVING     FLOW-JA-FACE IN MODEL EXPERIMENTAL     PACKAGE SFR             CONNECTED TO MODEL EXPERIMENTAL     PACKAGE SFR              ON UNIT   1015 AT TIME STEP      6, STRESS PERIOD      2
 UBDSV06 SAVING              GWF IN MODEL EXPERIMENTAL     PACKAGE SFR             CONNECTED TO MODEL EXPERIMENTAL     PACKAGE EXPERIMENTAL     ON UNIT   1015 AT TIME STEP      6, STRESS PERIOD      2
 UBDSV06 SAVING         RAINFALL IN MODEL EXPERIMENTAL     PACKAGE SFR             CONNECTED TO MODEL EXPERIMENTAL     PACKAGE SFR              ON UNIT   1015 AT TIME STEP      6, STRESS PERIOD      2
 UBDSV06 SAVING      EVAPORATION IN MODEL EXPERIMENTAL     PACKAGE SFR             CONNECTED TO MODEL EXPERIMENTAL     PACKAGE SFR              ON UNIT   1015 AT TIME STEP      6, STRESS PERIOD      2
 UBDSV06 SAVING           RUNOFF IN MODEL EXPERIMENTAL     PACKAGE SFR             CONNECTED TO MODEL EXPERIMENTAL     PACKAGE SFR              ON UNIT   1015 AT TIME STEP      6, STRESS PERIOD      2
 UBDSV06 SAVING       EXT-INFLOW IN MODEL EXPERIMENTAL     PACKAGE SFR             CONNECTED TO MODEL EXPERIMENTAL     PACKAGE SFR              ON UNIT   1015 AT TIME STEP      6, STRESS PERIOD      2
 UBDSV06 SAVING      EXT-OUTFLOW IN MODEL EXPERIMENTAL     PACKAGE SFR             CONNECTED TO MODEL EXPERIMENTAL     PACKAGE SFR              ON UNIT   1015 AT TIME STEP      6, STRESS PERIOD      2
 UBDSV06 SAVING          STORAGE IN MODEL EXPERIMENTAL     PACKAGE SFR             CONNECTED TO MODEL EXPERIMENTAL     PACKAGE SFR              ON UNIT   1015 AT TIME STEP      6, STRESS PERIOD      2

 HEAD WILL BE SAVED ON UNIT 1020 AT END OF TIME STEP    6, STRESS PERIOD    2

end timestep


start timestep kper="2" kstp="7" mode="normal"

 UBDSV1 SAVING           STO-SS ON UNIT   1019 AT TIME STEP      7, STRESS PERIOD      2
 UBDSV1 SAVING           STO-SY ON UNIT   1019 AT TIME STEP      7, STRESS PERIOD      2
 UBDSV1 SAVING     FLOW-JA-FACE ON UNIT   1019 AT TIME STEP      7, STRESS PERIOD      2
 UBDSV06 SAVING              GHB IN MODEL EXPERIMENTAL     PACKAGE EXPERIMENTAL    CONNECTED TO MODEL EXPERIMENTAL     PACKAGE GHB              ON UNIT   1019 AT TIME STEP      7, STRESS PERIOD      2
 UBDSV06 SAVING              RCH IN MODEL EXPERIMENTAL     PACKAGE EXPERIMENTAL    CONNECTED TO MODEL EXPERIMENTAL     PACKAGE RCH              ON UNIT   1019 AT TIME STEP      7, STRESS PERIOD      2
 UBDSV06 SAVING              SFR IN MODEL EXPERIMENTAL     PACKAGE EXPERIMENTAL    CONNECTED TO MODEL EXPERIMENTAL     PACKAGE SFR              ON UNIT   1019 AT TIME STEP      7, STRESS PERIOD      2
 UBDSV06 SAVING     FLOW-JA-FACE IN MODEL EXPERIMENTAL     PACKAGE SFR             CONNECTED TO MODEL EXPERIMENTAL     PACKAGE SFR              ON UNIT   1015 AT TIME STEP      7, STRESS PERIOD      2
 UBDSV06 SAVING              GWF IN MODEL EXPERIMENTAL     PACKAGE SFR             CONNECTED TO MODEL EXPERIMENTAL     PACKAGE EXPERIMENTAL     ON UNIT   1015 AT TIME STEP      7, STRESS PERIOD      2
 UBDSV06 SAVING         RAINFALL IN MODEL EXPERIMENTAL     PACKAGE SFR             CONNECTED TO MODEL EXPERIMENTAL     PACKAGE SFR              ON UNIT   1015 AT TIME STEP      7, STRESS PERIOD      2
 UBDSV06 SAVING      EVAPORATION IN MODEL EXPERIMENTAL     PACKAGE SFR             CONNECTED TO MODEL EXPERIMENTAL     PACKAGE SFR              ON UNIT   1015 AT TIME STEP      7, STRESS PERIOD      2
 UBDSV06 SAVING           RUNOFF IN MODEL EXPERIMENTAL     PACKAGE SFR             CONNECTED TO MODEL EXPERIMENTAL     PACKAGE SFR              ON UNIT   1015 AT TIME STEP      7, STRESS PERIOD      2
 UBDSV06 SAVING       EXT-INFLOW IN MODEL EXPERIMENTAL     PACKAGE SFR             CONNECTED TO MODEL EXPERIMENTAL     PACKAGE SFR              ON UNIT   1015 AT TIME STEP      7, STRESS PERIOD      2
 UBDSV06 SAVING      EXT-OUTFLOW IN MODEL EXPERIMENTAL     PACKAGE SFR             CONNECTED TO MODEL EXPERIMENTAL     PACKAGE SFR              ON UNIT   1015 AT TIME STEP      7, STRESS PERIOD      2
 UBDSV06 SAVING          STORAGE IN MODEL EXPERIMENTAL     PACKAGE SFR             CONNECTED TO MODEL EXPERIMENTAL     PACKAGE SFR              ON UNIT   1015 AT TIME STEP      7, STRESS PERIOD      2

 HEAD WILL BE SAVED ON UNIT 1020 AT END OF TIME STEP    7, STRESS PERIOD    2

end timestep


start timestep kper="2" kstp="8" mode="normal"

 UBDSV1 SAVING           STO-SS ON UNIT   1019 AT TIME STEP      8, STRESS PERIOD      2
 UBDSV1 SAVING           STO-SY ON UNIT   1019 AT TIME STEP      8, STRESS PERIOD      2
 UBDSV1 SAVING     FLOW-JA-FACE ON UNIT   1019 AT TIME STEP      8, STRESS PERIOD      2
 UBDSV06 SAVING              GHB IN MODEL EXPERIMENTAL     PACKAGE EXPERIMENTAL    CONNECTED TO MODEL EXPERIMENTAL     PACKAGE GHB              ON UNIT   1019 AT TIME STEP      8, STRESS PERIOD      2
 UBDSV06 SAVING              RCH IN MODEL EXPERIMENTAL     PACKAGE EXPERIMENTAL    CONNECTED TO MODEL EXPERIMENTAL     PACKAGE RCH              ON UNIT   1019 AT TIME STEP      8, STRESS PERIOD      2
 UBDSV06 SAVING              SFR IN MODEL EXPERIMENTAL     PACKAGE EXPERIMENTAL    CONNECTED TO MODEL EXPERIMENTAL     PACKAGE SFR              ON UNIT   1019 AT TIME STEP      8, STRESS PERIOD      2
 UBDSV06 SAVING     FLOW-JA-FACE IN MODEL EXPERIMENTAL     PACKAGE SFR             CONNECTED TO MODEL EXPERIMENTAL     PACKAGE SFR              ON UNIT   1015 AT TIME STEP      8, STRESS PERIOD      2
 UBDSV06 SAVING              GWF IN MODEL EXPERIMENTAL     PACKAGE SFR             CONNECTED TO MODEL EXPERIMENTAL     PACKAGE EXPERIMENTAL     ON UNIT   1015 AT TIME STEP      8, STRESS PERIOD      2
 UBDSV06 SAVING         RAINFALL IN MODEL EXPERIMENTAL     PACKAGE SFR             CONNECTED TO MODEL EXPERIMENTAL     PACKAGE SFR              ON UNIT   1015 AT TIME STEP      8, STRESS PERIOD      2
 UBDSV06 SAVING      EVAPORATION IN MODEL EXPERIMENTAL     PACKAGE SFR             CONNECTED TO MODEL EXPERIMENTAL     PACKAGE SFR              ON UNIT   1015 AT TIME STEP      8, STRESS PERIOD      2
 UBDSV06 SAVING           RUNOFF IN MODEL EXPERIMENTAL     PACKAGE SFR             CONNECTED TO MODEL EXPERIMENTAL     PACKAGE SFR              ON UNIT   1015 AT TIME STEP      8, STRESS PERIOD      2
 UBDSV06 SAVING       EXT-INFLOW IN MODEL EXPERIMENTAL     PACKAGE SFR             CONNECTED TO MODEL EXPERIMENTAL     PACKAGE SFR              ON UNIT   1015 AT TIME STEP      8, STRESS PERIOD      2
 UBDSV06 SAVING      EXT-OUTFLOW IN MODEL EXPERIMENTAL     PACKAGE SFR             CONNECTED TO MODEL EXPERIMENTAL     PACKAGE SFR              ON UNIT   1015 AT TIME STEP      8, STRESS PERIOD      2
 UBDSV06 SAVING          STORAGE IN MODEL EXPERIMENTAL     PACKAGE SFR             CONNECTED TO MODEL EXPERIMENTAL     PACKAGE SFR              ON UNIT   1015 AT TIME STEP      8, STRESS PERIOD      2

 HEAD WILL BE SAVED ON UNIT 1020 AT END OF TIME STEP    8, STRESS PERIOD    2

end timestep


start timestep kper="2" kstp="9" mode="normal"

 UBDSV1 SAVING           STO-SS ON UNIT   1019 AT TIME STEP      9, STRESS PERIOD      2
 UBDSV1 SAVING           STO-SY ON UNIT   1019 AT TIME STEP      9, STRESS PERIOD      2
 UBDSV1 SAVING     FLOW-JA-FACE ON UNIT   1019 AT TIME STEP      9, STRESS PERIOD      2
 UBDSV06 SAVING              GHB IN MODEL EXPERIMENTAL     PACKAGE EXPERIMENTAL    CONNECTED TO MODEL EXPERIMENTAL     PACKAGE GHB              ON UNIT   1019 AT TIME STEP      9, STRESS PERIOD      2
 UBDSV06 SAVING              RCH IN MODEL EXPERIMENTAL     PACKAGE EXPERIMENTAL    CONNECTED TO MODEL EXPERIMENTAL     PACKAGE RCH              ON UNIT   1019 AT TIME STEP      9, STRESS PERIOD      2
 UBDSV06 SAVING              SFR IN MODEL EXPERIMENTAL     PACKAGE EXPERIMENTAL    CONNECTED TO MODEL EXPERIMENTAL     PACKAGE SFR              ON UNIT   1019 AT TIME STEP      9, STRESS PERIOD      2
 UBDSV06 SAVING     FLOW-JA-FACE IN MODEL EXPERIMENTAL     PACKAGE SFR             CONNECTED TO MODEL EXPERIMENTAL     PACKAGE SFR              ON UNIT   1015 AT TIME STEP      9, STRESS PERIOD      2
 UBDSV06 SAVING              GWF IN MODEL EXPERIMENTAL     PACKAGE SFR             CONNECTED TO MODEL EXPERIMENTAL     PACKAGE EXPERIMENTAL     ON UNIT   1015 AT TIME STEP      9, STRESS PERIOD      2
 UBDSV06 SAVING         RAINFALL IN MODEL EXPERIMENTAL     PACKAGE SFR             CONNECTED TO MODEL EXPERIMENTAL     PACKAGE SFR              ON UNIT   1015 AT TIME STEP      9, STRESS PERIOD      2
 UBDSV06 SAVING      EVAPORATION IN MODEL EXPERIMENTAL     PACKAGE SFR             CONNECTED TO MODEL EXPERIMENTAL     PACKAGE SFR              ON UNIT   1015 AT TIME STEP      9, STRESS PERIOD      2
 UBDSV06 SAVING           RUNOFF IN MODEL EXPERIMENTAL     PACKAGE SFR             CONNECTED TO MODEL EXPERIMENTAL     PACKAGE SFR              ON UNIT   1015 AT TIME STEP      9, STRESS PERIOD      2
 UBDSV06 SAVING       EXT-INFLOW IN MODEL EXPERIMENTAL     PACKAGE SFR             CONNECTED TO MODEL EXPERIMENTAL     PACKAGE SFR              ON UNIT   1015 AT TIME STEP      9, STRESS PERIOD      2
 UBDSV06 SAVING      EXT-OUTFLOW IN MODEL EXPERIMENTAL     PACKAGE SFR             CONNECTED TO MODEL EXPERIMENTAL     PACKAGE SFR              ON UNIT   1015 AT TIME STEP      9, STRESS PERIOD      2
 UBDSV06 SAVING          STORAGE IN MODEL EXPERIMENTAL     PACKAGE SFR             CONNECTED TO MODEL EXPERIMENTAL     PACKAGE SFR              ON UNIT   1015 AT TIME STEP      9, STRESS PERIOD      2

 HEAD WILL BE SAVED ON UNIT 1020 AT END OF TIME STEP    9, STRESS PERIOD    2

end timestep


start timestep kper="2" kstp="10" mode="normal"

 UBDSV1 SAVING           STO-SS ON UNIT   1019 AT TIME STEP     10, STRESS PERIOD      2
 UBDSV1 SAVING           STO-SY ON UNIT   1019 AT TIME STEP     10, STRESS PERIOD      2
 UBDSV1 SAVING     FLOW-JA-FACE ON UNIT   1019 AT TIME STEP     10, STRESS PERIOD      2
 UBDSV06 SAVING              GHB IN MODEL EXPERIMENTAL     PACKAGE EXPERIMENTAL    CONNECTED TO MODEL EXPERIMENTAL     PACKAGE GHB              ON UNIT   1019 AT TIME STEP     10, STRESS PERIOD      2
 UBDSV06 SAVING              RCH IN MODEL EXPERIMENTAL     PACKAGE EXPERIMENTAL    CONNECTED TO MODEL EXPERIMENTAL     PACKAGE RCH              ON UNIT   1019 AT TIME STEP     10, STRESS PERIOD      2
 UBDSV06 SAVING              SFR IN MODEL EXPERIMENTAL     PACKAGE EXPERIMENTAL    CONNECTED TO MODEL EXPERIMENTAL     PACKAGE SFR              ON UNIT   1019 AT TIME STEP     10, STRESS PERIOD      2
 UBDSV06 SAVING     FLOW-JA-FACE IN MODEL EXPERIMENTAL     PACKAGE SFR             CONNECTED TO MODEL EXPERIMENTAL     PACKAGE SFR              ON UNIT   1015 AT TIME STEP     10, STRESS PERIOD      2
 UBDSV06 SAVING              GWF IN MODEL EXPERIMENTAL     PACKAGE SFR             CONNECTED TO MODEL EXPERIMENTAL     PACKAGE EXPERIMENTAL     ON UNIT   1015 AT TIME STEP     10, STRESS PERIOD      2
 UBDSV06 SAVING         RAINFALL IN MODEL EXPERIMENTAL     PACKAGE SFR             CONNECTED TO MODEL EXPERIMENTAL     PACKAGE SFR              ON UNIT   1015 AT TIME STEP     10, STRESS PERIOD      2
 UBDSV06 SAVING      EVAPORATION IN MODEL EXPERIMENTAL     PACKAGE SFR             CONNECTED TO MODEL EXPERIMENTAL     PACKAGE SFR              ON UNIT   1015 AT TIME STEP     10, STRESS PERIOD      2
 UBDSV06 SAVING           RUNOFF IN MODEL EXPERIMENTAL     PACKAGE SFR             CONNECTED TO MODEL EXPERIMENTAL     PACKAGE SFR              ON UNIT   1015 AT TIME STEP     10, STRESS PERIOD      2
 UBDSV06 SAVING       EXT-INFLOW IN MODEL EXPERIMENTAL     PACKAGE SFR             CONNECTED TO MODEL EXPERIMENTAL     PACKAGE SFR              ON UNIT   1015 AT TIME STEP     10, STRESS PERIOD      2
 UBDSV06 SAVING      EXT-OUTFLOW IN MODEL EXPERIMENTAL     PACKAGE SFR             CONNECTED TO MODEL EXPERIMENTAL     PACKAGE SFR              ON UNIT   1015 AT TIME STEP     10, STRESS PERIOD      2
 UBDSV06 SAVING          STORAGE IN MODEL EXPERIMENTAL     PACKAGE SFR             CONNECTED TO MODEL EXPERIMENTAL     PACKAGE SFR              ON UNIT   1015 AT TIME STEP     10, STRESS PERIOD      2

 HEAD WILL BE SAVED ON UNIT 1020 AT END OF TIME STEP   10, STRESS PERIOD    2

end timestep


start timestep kper="2" kstp="11" mode="normal"

 UBDSV1 SAVING           STO-SS ON UNIT   1019 AT TIME STEP     11, STRESS PERIOD      2
 UBDSV1 SAVING           STO-SY ON UNIT   1019 AT TIME STEP     11, STRESS PERIOD      2
 UBDSV1 SAVING     FLOW-JA-FACE ON UNIT   1019 AT TIME STEP     11, STRESS PERIOD      2
 UBDSV06 SAVING              GHB IN MODEL EXPERIMENTAL     PACKAGE EXPERIMENTAL    CONNECTED TO MODEL EXPERIMENTAL     PACKAGE GHB              ON UNIT   1019 AT TIME STEP     11, STRESS PERIOD      2
 UBDSV06 SAVING              RCH IN MODEL EXPERIMENTAL     PACKAGE EXPERIMENTAL    CONNECTED TO MODEL EXPERIMENTAL     PACKAGE RCH              ON UNIT   1019 AT TIME STEP     11, STRESS PERIOD      2
 UBDSV06 SAVING              SFR IN MODEL EXPERIMENTAL     PACKAGE EXPERIMENTAL    CONNECTED TO MODEL EXPERIMENTAL     PACKAGE SFR              ON UNIT   1019 AT TIME STEP     11, STRESS PERIOD      2
 UBDSV06 SAVING     FLOW-JA-FACE IN MODEL EXPERIMENTAL     PACKAGE SFR             CONNECTED TO MODEL EXPERIMENTAL     PACKAGE SFR              ON UNIT   1015 AT TIME STEP     11, STRESS PERIOD      2
 UBDSV06 SAVING              GWF IN MODEL EXPERIMENTAL     PACKAGE SFR             CONNECTED TO MODEL EXPERIMENTAL     PACKAGE EXPERIMENTAL     ON UNIT   1015 AT TIME STEP     11, STRESS PERIOD      2
 UBDSV06 SAVING         RAINFALL IN MODEL EXPERIMENTAL     PACKAGE SFR             CONNECTED TO MODEL EXPERIMENTAL     PACKAGE SFR              ON UNIT   1015 AT TIME STEP     11, STRESS PERIOD      2
 UBDSV06 SAVING      EVAPORATION IN MODEL EXPERIMENTAL     PACKAGE SFR             CONNECTED TO MODEL EXPERIMENTAL     PACKAGE SFR              ON UNIT   1015 AT TIME STEP     11, STRESS PERIOD      2
 UBDSV06 SAVING           RUNOFF IN MODEL EXPERIMENTAL     PACKAGE SFR             CONNECTED TO MODEL EXPERIMENTAL     PACKAGE SFR              ON UNIT   1015 AT TIME STEP     11, STRESS PERIOD      2
 UBDSV06 SAVING       EXT-INFLOW IN MODEL EXPERIMENTAL     PACKAGE SFR             CONNECTED TO MODEL EXPERIMENTAL     PACKAGE SFR              ON UNIT   1015 AT TIME STEP     11, STRESS PERIOD      2
 UBDSV06 SAVING      EXT-OUTFLOW IN MODEL EXPERIMENTAL     PACKAGE SFR             CONNECTED TO MODEL EXPERIMENTAL     PACKAGE SFR              ON UNIT   1015 AT TIME STEP     11, STRESS PERIOD      2
 UBDSV06 SAVING          STORAGE IN MODEL EXPERIMENTAL     PACKAGE SFR             CONNECTED TO MODEL EXPERIMENTAL     PACKAGE SFR              ON UNIT   1015 AT TIME STEP     11, STRESS PERIOD      2

 HEAD WILL BE SAVED ON UNIT 1020 AT END OF TIME STEP   11, STRESS PERIOD    2

end timestep


start timestep kper="2" kstp="12" mode="normal"

 UBDSV1 SAVING           STO-SS ON UNIT   1019 AT TIME STEP     12, STRESS PERIOD      2
 UBDSV1 SAVING           STO-SY ON UNIT   1019 AT TIME STEP     12, STRESS PERIOD      2
 UBDSV1 SAVING     FLOW-JA-FACE ON UNIT   1019 AT TIME STEP     12, STRESS PERIOD      2
 UBDSV06 SAVING              GHB IN MODEL EXPERIMENTAL     PACKAGE EXPERIMENTAL    CONNECTED TO MODEL EXPERIMENTAL     PACKAGE GHB              ON UNIT   1019 AT TIME STEP     12, STRESS PERIOD      2
 UBDSV06 SAVING              RCH IN MODEL EXPERIMENTAL     PACKAGE EXPERIMENTAL    CONNECTED TO MODEL EXPERIMENTAL     PACKAGE RCH              ON UNIT   1019 AT TIME STEP     12, STRESS PERIOD      2
 UBDSV06 SAVING              SFR IN MODEL EXPERIMENTAL     PACKAGE EXPERIMENTAL    CONNECTED TO MODEL EXPERIMENTAL     PACKAGE SFR              ON UNIT   1019 AT TIME STEP     12, STRESS PERIOD      2
 UBDSV06 SAVING     FLOW-JA-FACE IN MODEL EXPERIMENTAL     PACKAGE SFR             CONNECTED TO MODEL EXPERIMENTAL     PACKAGE SFR              ON UNIT   1015 AT TIME STEP     12, STRESS PERIOD      2
 UBDSV06 SAVING              GWF IN MODEL EXPERIMENTAL     PACKAGE SFR             CONNECTED TO MODEL EXPERIMENTAL     PACKAGE EXPERIMENTAL     ON UNIT   1015 AT TIME STEP     12, STRESS PERIOD      2
 UBDSV06 SAVING         RAINFALL IN MODEL EXPERIMENTAL     PACKAGE SFR             CONNECTED TO MODEL EXPERIMENTAL     PACKAGE SFR              ON UNIT   1015 AT TIME STEP     12, STRESS PERIOD      2
 UBDSV06 SAVING      EVAPORATION IN MODEL EXPERIMENTAL     PACKAGE SFR             CONNECTED TO MODEL EXPERIMENTAL     PACKAGE SFR              ON UNIT   1015 AT TIME STEP     12, STRESS PERIOD      2
 UBDSV06 SAVING           RUNOFF IN MODEL EXPERIMENTAL     PACKAGE SFR             CONNECTED TO MODEL EXPERIMENTAL     PACKAGE SFR              ON UNIT   1015 AT TIME STEP     12, STRESS PERIOD      2
 UBDSV06 SAVING       EXT-INFLOW IN MODEL EXPERIMENTAL     PACKAGE SFR             CONNECTED TO MODEL EXPERIMENTAL     PACKAGE SFR              ON UNIT   1015 AT TIME STEP     12, STRESS PERIOD      2
 UBDSV06 SAVING      EXT-OUTFLOW IN MODEL EXPERIMENTAL     PACKAGE SFR             CONNECTED TO MODEL EXPERIMENTAL     PACKAGE SFR              ON UNIT   1015 AT TIME STEP     12, STRESS PERIOD      2
 UBDSV06 SAVING          STORAGE IN MODEL EXPERIMENTAL     PACKAGE SFR             CONNECTED TO MODEL EXPERIMENTAL     PACKAGE SFR              ON UNIT   1015 AT TIME STEP     12, STRESS PERIOD      2

 HEAD WILL BE SAVED ON UNIT 1020 AT END OF TIME STEP   12, STRESS PERIOD    2

end timestep


start timestep kper="2" kstp="13" mode="normal"

 UBDSV1 SAVING           STO-SS ON UNIT   1019 AT TIME STEP     13, STRESS PERIOD      2
 UBDSV1 SAVING           STO-SY ON UNIT   1019 AT TIME STEP     13, STRESS PERIOD      2
 UBDSV1 SAVING     FLOW-JA-FACE ON UNIT   1019 AT TIME STEP     13, STRESS PERIOD      2
 UBDSV06 SAVING              GHB IN MODEL EXPERIMENTAL     PACKAGE EXPERIMENTAL    CONNECTED TO MODEL EXPERIMENTAL     PACKAGE GHB              ON UNIT   1019 AT TIME STEP     13, STRESS PERIOD      2
 UBDSV06 SAVING              RCH IN MODEL EXPERIMENTAL     PACKAGE EXPERIMENTAL    CONNECTED TO MODEL EXPERIMENTAL     PACKAGE RCH              ON UNIT   1019 AT TIME STEP     13, STRESS PERIOD      2
 UBDSV06 SAVING              SFR IN MODEL EXPERIMENTAL     PACKAGE EXPERIMENTAL    CONNECTED TO MODEL EXPERIMENTAL     PACKAGE SFR              ON UNIT   1019 AT TIME STEP     13, STRESS PERIOD      2
 UBDSV06 SAVING     FLOW-JA-FACE IN MODEL EXPERIMENTAL     PACKAGE SFR             CONNECTED TO MODEL EXPERIMENTAL     PACKAGE SFR              ON UNIT   1015 AT TIME STEP     13, STRESS PERIOD      2
 UBDSV06 SAVING              GWF IN MODEL EXPERIMENTAL     PACKAGE SFR             CONNECTED TO MODEL EXPERIMENTAL     PACKAGE EXPERIMENTAL     ON UNIT   1015 AT TIME STEP     13, STRESS PERIOD      2
 UBDSV06 SAVING         RAINFALL IN MODEL EXPERIMENTAL     PACKAGE SFR             CONNECTED TO MODEL EXPERIMENTAL     PACKAGE SFR              ON UNIT   1015 AT TIME STEP     13, STRESS PERIOD      2
 UBDSV06 SAVING      EVAPORATION IN MODEL EXPERIMENTAL     PACKAGE SFR             CONNECTED TO MODEL EXPERIMENTAL     PACKAGE SFR              ON UNIT   1015 AT TIME STEP     13, STRESS PERIOD      2
 UBDSV06 SAVING           RUNOFF IN MODEL EXPERIMENTAL     PACKAGE SFR             CONNECTED TO MODEL EXPERIMENTAL     PACKAGE SFR              ON UNIT   1015 AT TIME STEP     13, STRESS PERIOD      2
 UBDSV06 SAVING       EXT-INFLOW IN MODEL EXPERIMENTAL     PACKAGE SFR             CONNECTED TO MODEL EXPERIMENTAL     PACKAGE SFR              ON UNIT   1015 AT TIME STEP     13, STRESS PERIOD      2
 UBDSV06 SAVING      EXT-OUTFLOW IN MODEL EXPERIMENTAL     PACKAGE SFR             CONNECTED TO MODEL EXPERIMENTAL     PACKAGE SFR              ON UNIT   1015 AT TIME STEP     13, STRESS PERIOD      2
 UBDSV06 SAVING          STORAGE IN MODEL EXPERIMENTAL     PACKAGE SFR             CONNECTED TO MODEL EXPERIMENTAL     PACKAGE SFR              ON UNIT   1015 AT TIME STEP     13, STRESS PERIOD      2

 HEAD WILL BE SAVED ON UNIT 1020 AT END OF TIME STEP   13, STRESS PERIOD    2

end timestep


start timestep kper="2" kstp="14" mode="normal"

 UBDSV1 SAVING           STO-SS ON UNIT   1019 AT TIME STEP     14, STRESS PERIOD      2
 UBDSV1 SAVING           STO-SY ON UNIT   1019 AT TIME STEP     14, STRESS PERIOD      2
 UBDSV1 SAVING     FLOW-JA-FACE ON UNIT   1019 AT TIME STEP     14, STRESS PERIOD      2
 UBDSV06 SAVING              GHB IN MODEL EXPERIMENTAL     PACKAGE EXPERIMENTAL    CONNECTED TO MODEL EXPERIMENTAL     PACKAGE GHB              ON UNIT   1019 AT TIME STEP     14, STRESS PERIOD      2
 UBDSV06 SAVING              RCH IN MODEL EXPERIMENTAL     PACKAGE EXPERIMENTAL    CONNECTED TO MODEL EXPERIMENTAL     PACKAGE RCH              ON UNIT   1019 AT TIME STEP     14, STRESS PERIOD      2
 UBDSV06 SAVING              SFR IN MODEL EXPERIMENTAL     PACKAGE EXPERIMENTAL    CONNECTED TO MODEL EXPERIMENTAL     PACKAGE SFR              ON UNIT   1019 AT TIME STEP     14, STRESS PERIOD      2
 UBDSV06 SAVING     FLOW-JA-FACE IN MODEL EXPERIMENTAL     PACKAGE SFR             CONNECTED TO MODEL EXPERIMENTAL     PACKAGE SFR              ON UNIT   1015 AT TIME STEP     14, STRESS PERIOD      2
 UBDSV06 SAVING              GWF IN MODEL EXPERIMENTAL     PACKAGE SFR             CONNECTED TO MODEL EXPERIMENTAL     PACKAGE EXPERIMENTAL     ON UNIT   1015 AT TIME STEP     14, STRESS PERIOD      2
 UBDSV06 SAVING         RAINFALL IN MODEL EXPERIMENTAL     PACKAGE SFR             CONNECTED TO MODEL EXPERIMENTAL     PACKAGE SFR              ON UNIT   1015 AT TIME STEP     14, STRESS PERIOD      2
 UBDSV06 SAVING      EVAPORATION IN MODEL EXPERIMENTAL     PACKAGE SFR             CONNECTED TO MODEL EXPERIMENTAL     PACKAGE SFR              ON UNIT   1015 AT TIME STEP     14, STRESS PERIOD      2
 UBDSV06 SAVING           RUNOFF IN MODEL EXPERIMENTAL     PACKAGE SFR             CONNECTED TO MODEL EXPERIMENTAL     PACKAGE SFR              ON UNIT   1015 AT TIME STEP     14, STRESS PERIOD      2
 UBDSV06 SAVING       EXT-INFLOW IN MODEL EXPERIMENTAL     PACKAGE SFR             CONNECTED TO MODEL EXPERIMENTAL     PACKAGE SFR              ON UNIT   1015 AT TIME STEP     14, STRESS PERIOD      2
 UBDSV06 SAVING      EXT-OUTFLOW IN MODEL EXPERIMENTAL     PACKAGE SFR             CONNECTED TO MODEL EXPERIMENTAL     PACKAGE SFR              ON UNIT   1015 AT TIME STEP     14, STRESS PERIOD      2
 UBDSV06 SAVING          STORAGE IN MODEL EXPERIMENTAL     PACKAGE SFR             CONNECTED TO MODEL EXPERIMENTAL     PACKAGE SFR              ON UNIT   1015 AT TIME STEP     14, STRESS PERIOD      2

 HEAD WILL BE SAVED ON UNIT 1020 AT END OF TIME STEP   14, STRESS PERIOD    2

end timestep


start timestep kper="2" kstp="15" mode="normal"

 UBDSV1 SAVING           STO-SS ON UNIT   1019 AT TIME STEP     15, STRESS PERIOD      2
 UBDSV1 SAVING           STO-SY ON UNIT   1019 AT TIME STEP     15, STRESS PERIOD      2
 UBDSV1 SAVING     FLOW-JA-FACE ON UNIT   1019 AT TIME STEP     15, STRESS PERIOD      2
 UBDSV06 SAVING              GHB IN MODEL EXPERIMENTAL     PACKAGE EXPERIMENTAL    CONNECTED TO MODEL EXPERIMENTAL     PACKAGE GHB              ON UNIT   1019 AT TIME STEP     15, STRESS PERIOD      2
 UBDSV06 SAVING              RCH IN MODEL EXPERIMENTAL     PACKAGE EXPERIMENTAL    CONNECTED TO MODEL EXPERIMENTAL     PACKAGE RCH              ON UNIT   1019 AT TIME STEP     15, STRESS PERIOD      2
 UBDSV06 SAVING              SFR IN MODEL EXPERIMENTAL     PACKAGE EXPERIMENTAL    CONNECTED TO MODEL EXPERIMENTAL     PACKAGE SFR              ON UNIT   1019 AT TIME STEP     15, STRESS PERIOD      2
 UBDSV06 SAVING     FLOW-JA-FACE IN MODEL EXPERIMENTAL     PACKAGE SFR             CONNECTED TO MODEL EXPERIMENTAL     PACKAGE SFR              ON UNIT   1015 AT TIME STEP     15, STRESS PERIOD      2
 UBDSV06 SAVING              GWF IN MODEL EXPERIMENTAL     PACKAGE SFR             CONNECTED TO MODEL EXPERIMENTAL     PACKAGE EXPERIMENTAL     ON UNIT   1015 AT TIME STEP     15, STRESS PERIOD      2
 UBDSV06 SAVING         RAINFALL IN MODEL EXPERIMENTAL     PACKAGE SFR             CONNECTED TO MODEL EXPERIMENTAL     PACKAGE SFR              ON UNIT   1015 AT TIME STEP     15, STRESS PERIOD      2
 UBDSV06 SAVING      EVAPORATION IN MODEL EXPERIMENTAL     PACKAGE SFR             CONNECTED TO MODEL EXPERIMENTAL     PACKAGE SFR              ON UNIT   1015 AT TIME STEP     15, STRESS PERIOD      2
 UBDSV06 SAVING           RUNOFF IN MODEL EXPERIMENTAL     PACKAGE SFR             CONNECTED TO MODEL EXPERIMENTAL     PACKAGE SFR              ON UNIT   1015 AT TIME STEP     15, STRESS PERIOD      2
 UBDSV06 SAVING       EXT-INFLOW IN MODEL EXPERIMENTAL     PACKAGE SFR             CONNECTED TO MODEL EXPERIMENTAL     PACKAGE SFR              ON UNIT   1015 AT TIME STEP     15, STRESS PERIOD      2
 UBDSV06 SAVING      EXT-OUTFLOW IN MODEL EXPERIMENTAL     PACKAGE SFR             CONNECTED TO MODEL EXPERIMENTAL     PACKAGE SFR              ON UNIT   1015 AT TIME STEP     15, STRESS PERIOD      2
 UBDSV06 SAVING          STORAGE IN MODEL EXPERIMENTAL     PACKAGE SFR             CONNECTED TO MODEL EXPERIMENTAL     PACKAGE SFR              ON UNIT   1015 AT TIME STEP     15, STRESS PERIOD      2

 HEAD WILL BE SAVED ON UNIT 1020 AT END OF TIME STEP   15, STRESS PERIOD    2

end timestep


start timestep kper="2" kstp="16" mode="normal"

 UBDSV1 SAVING           STO-SS ON UNIT   1019 AT TIME STEP     16, STRESS PERIOD      2
 UBDSV1 SAVING           STO-SY ON UNIT   1019 AT TIME STEP     16, STRESS PERIOD      2
 UBDSV1 SAVING     FLOW-JA-FACE ON UNIT   1019 AT TIME STEP     16, STRESS PERIOD      2
 UBDSV06 SAVING              GHB IN MODEL EXPERIMENTAL     PACKAGE EXPERIMENTAL    CONNECTED TO MODEL EXPERIMENTAL     PACKAGE GHB              ON UNIT   1019 AT TIME STEP     16, STRESS PERIOD      2
 UBDSV06 SAVING              RCH IN MODEL EXPERIMENTAL     PACKAGE EXPERIMENTAL    CONNECTED TO MODEL EXPERIMENTAL     PACKAGE RCH              ON UNIT   1019 AT TIME STEP     16, STRESS PERIOD      2
 UBDSV06 SAVING              SFR IN MODEL EXPERIMENTAL     PACKAGE EXPERIMENTAL    CONNECTED TO MODEL EXPERIMENTAL     PACKAGE SFR              ON UNIT   1019 AT TIME STEP     16, STRESS PERIOD      2
 UBDSV06 SAVING     FLOW-JA-FACE IN MODEL EXPERIMENTAL     PACKAGE SFR             CONNECTED TO MODEL EXPERIMENTAL     PACKAGE SFR              ON UNIT   1015 AT TIME STEP     16, STRESS PERIOD      2
 UBDSV06 SAVING              GWF IN MODEL EXPERIMENTAL     PACKAGE SFR             CONNECTED TO MODEL EXPERIMENTAL     PACKAGE EXPERIMENTAL     ON UNIT   1015 AT TIME STEP     16, STRESS PERIOD      2
 UBDSV06 SAVING         RAINFALL IN MODEL EXPERIMENTAL     PACKAGE SFR             CONNECTED TO MODEL EXPERIMENTAL     PACKAGE SFR              ON UNIT   1015 AT TIME STEP     16, STRESS PERIOD      2
 UBDSV06 SAVING      EVAPORATION IN MODEL EXPERIMENTAL     PACKAGE SFR             CONNECTED TO MODEL EXPERIMENTAL     PACKAGE SFR              ON UNIT   1015 AT TIME STEP     16, STRESS PERIOD      2
 UBDSV06 SAVING           RUNOFF IN MODEL EXPERIMENTAL     PACKAGE SFR             CONNECTED TO MODEL EXPERIMENTAL     PACKAGE SFR              ON UNIT   1015 AT TIME STEP     16, STRESS PERIOD      2
 UBDSV06 SAVING       EXT-INFLOW IN MODEL EXPERIMENTAL     PACKAGE SFR             CONNECTED TO MODEL EXPERIMENTAL     PACKAGE SFR              ON UNIT   1015 AT TIME STEP     16, STRESS PERIOD      2
 UBDSV06 SAVING      EXT-OUTFLOW IN MODEL EXPERIMENTAL     PACKAGE SFR             CONNECTED TO MODEL EXPERIMENTAL     PACKAGE SFR              ON UNIT   1015 AT TIME STEP     16, STRESS PERIOD      2
 UBDSV06 SAVING          STORAGE IN MODEL EXPERIMENTAL     PACKAGE SFR             CONNECTED TO MODEL EXPERIMENTAL     PACKAGE SFR              ON UNIT   1015 AT TIME STEP     16, STRESS PERIOD      2

 HEAD WILL BE SAVED ON UNIT 1020 AT END OF TIME STEP   16, STRESS PERIOD    2

end timestep


start timestep kper="2" kstp="17" mode="normal"

 UBDSV1 SAVING           STO-SS ON UNIT   1019 AT TIME STEP     17, STRESS PERIOD      2
 UBDSV1 SAVING           STO-SY ON UNIT   1019 AT TIME STEP     17, STRESS PERIOD      2
 UBDSV1 SAVING     FLOW-JA-FACE ON UNIT   1019 AT TIME STEP     17, STRESS PERIOD      2
 UBDSV06 SAVING              GHB IN MODEL EXPERIMENTAL     PACKAGE EXPERIMENTAL    CONNECTED TO MODEL EXPERIMENTAL     PACKAGE GHB              ON UNIT   1019 AT TIME STEP     17, STRESS PERIOD      2
 UBDSV06 SAVING              RCH IN MODEL EXPERIMENTAL     PACKAGE EXPERIMENTAL    CONNECTED TO MODEL EXPERIMENTAL     PACKAGE RCH              ON UNIT   1019 AT TIME STEP     17, STRESS PERIOD      2
 UBDSV06 SAVING              SFR IN MODEL EXPERIMENTAL     PACKAGE EXPERIMENTAL    CONNECTED TO MODEL EXPERIMENTAL     PACKAGE SFR              ON UNIT   1019 AT TIME STEP     17, STRESS PERIOD      2
 UBDSV06 SAVING     FLOW-JA-FACE IN MODEL EXPERIMENTAL     PACKAGE SFR             CONNECTED TO MODEL EXPERIMENTAL     PACKAGE SFR              ON UNIT   1015 AT TIME STEP     17, STRESS PERIOD      2
 UBDSV06 SAVING              GWF IN MODEL EXPERIMENTAL     PACKAGE SFR             CONNECTED TO MODEL EXPERIMENTAL     PACKAGE EXPERIMENTAL     ON UNIT   1015 AT TIME STEP     17, STRESS PERIOD      2
 UBDSV06 SAVING         RAINFALL IN MODEL EXPERIMENTAL     PACKAGE SFR             CONNECTED TO MODEL EXPERIMENTAL     PACKAGE SFR              ON UNIT   1015 AT TIME STEP     17, STRESS PERIOD      2
 UBDSV06 SAVING      EVAPORATION IN MODEL EXPERIMENTAL     PACKAGE SFR             CONNECTED TO MODEL EXPERIMENTAL     PACKAGE SFR              ON UNIT   1015 AT TIME STEP     17, STRESS PERIOD      2
 UBDSV06 SAVING           RUNOFF IN MODEL EXPERIMENTAL     PACKAGE SFR             CONNECTED TO MODEL EXPERIMENTAL     PACKAGE SFR              ON UNIT   1015 AT TIME STEP     17, STRESS PERIOD      2
 UBDSV06 SAVING       EXT-INFLOW IN MODEL EXPERIMENTAL     PACKAGE SFR             CONNECTED TO MODEL EXPERIMENTAL     PACKAGE SFR              ON UNIT   1015 AT TIME STEP     17, STRESS PERIOD      2
 UBDSV06 SAVING      EXT-OUTFLOW IN MODEL EXPERIMENTAL     PACKAGE SFR             CONNECTED TO MODEL EXPERIMENTAL     PACKAGE SFR              ON UNIT   1015 AT TIME STEP     17, STRESS PERIOD      2
 UBDSV06 SAVING          STORAGE IN MODEL EXPERIMENTAL     PACKAGE SFR             CONNECTED TO MODEL EXPERIMENTAL     PACKAGE SFR              ON UNIT   1015 AT TIME STEP     17, STRESS PERIOD      2

 HEAD WILL BE SAVED ON UNIT 1020 AT END OF TIME STEP   17, STRESS PERIOD    2

end timestep


start timestep kper="2" kstp="18" mode="normal"

 UBDSV1 SAVING           STO-SS ON UNIT   1019 AT TIME STEP     18, STRESS PERIOD      2
 UBDSV1 SAVING           STO-SY ON UNIT   1019 AT TIME STEP     18, STRESS PERIOD      2
 UBDSV1 SAVING     FLOW-JA-FACE ON UNIT   1019 AT TIME STEP     18, STRESS PERIOD      2
 UBDSV06 SAVING              GHB IN MODEL EXPERIMENTAL     PACKAGE EXPERIMENTAL    CONNECTED TO MODEL EXPERIMENTAL     PACKAGE GHB              ON UNIT   1019 AT TIME STEP     18, STRESS PERIOD      2
 UBDSV06 SAVING              RCH IN MODEL EXPERIMENTAL     PACKAGE EXPERIMENTAL    CONNECTED TO MODEL EXPERIMENTAL     PACKAGE RCH              ON UNIT   1019 AT TIME STEP     18, STRESS PERIOD      2
 UBDSV06 SAVING              SFR IN MODEL EXPERIMENTAL     PACKAGE EXPERIMENTAL    CONNECTED TO MODEL EXPERIMENTAL     PACKAGE SFR              ON UNIT   1019 AT TIME STEP     18, STRESS PERIOD      2
 UBDSV06 SAVING     FLOW-JA-FACE IN MODEL EXPERIMENTAL     PACKAGE SFR             CONNECTED TO MODEL EXPERIMENTAL     PACKAGE SFR              ON UNIT   1015 AT TIME STEP     18, STRESS PERIOD      2
 UBDSV06 SAVING              GWF IN MODEL EXPERIMENTAL     PACKAGE SFR             CONNECTED TO MODEL EXPERIMENTAL     PACKAGE EXPERIMENTAL     ON UNIT   1015 AT TIME STEP     18, STRESS PERIOD      2
 UBDSV06 SAVING         RAINFALL IN MODEL EXPERIMENTAL     PACKAGE SFR             CONNECTED TO MODEL EXPERIMENTAL     PACKAGE SFR              ON UNIT   1015 AT TIME STEP     18, STRESS PERIOD      2
 UBDSV06 SAVING      EVAPORATION IN MODEL EXPERIMENTAL     PACKAGE SFR             CONNECTED TO MODEL EXPERIMENTAL     PACKAGE SFR              ON UNIT   1015 AT TIME STEP     18, STRESS PERIOD      2
 UBDSV06 SAVING           RUNOFF IN MODEL EXPERIMENTAL     PACKAGE SFR             CONNECTED TO MODEL EXPERIMENTAL     PACKAGE SFR              ON UNIT   1015 AT TIME STEP     18, STRESS PERIOD      2
 UBDSV06 SAVING       EXT-INFLOW IN MODEL EXPERIMENTAL     PACKAGE SFR             CONNECTED TO MODEL EXPERIMENTAL     PACKAGE SFR              ON UNIT   1015 AT TIME STEP     18, STRESS PERIOD      2
 UBDSV06 SAVING      EXT-OUTFLOW IN MODEL EXPERIMENTAL     PACKAGE SFR             CONNECTED TO MODEL EXPERIMENTAL     PACKAGE SFR              ON UNIT   1015 AT TIME STEP     18, STRESS PERIOD      2
 UBDSV06 SAVING          STORAGE IN MODEL EXPERIMENTAL     PACKAGE SFR             CONNECTED TO MODEL EXPERIMENTAL     PACKAGE SFR              ON UNIT   1015 AT TIME STEP     18, STRESS PERIOD      2

 HEAD WILL BE SAVED ON UNIT 1020 AT END OF TIME STEP   18, STRESS PERIOD    2

end timestep


start timestep kper="2" kstp="19" mode="normal"

 UBDSV1 SAVING           STO-SS ON UNIT   1019 AT TIME STEP     19, STRESS PERIOD      2
 UBDSV1 SAVING           STO-SY ON UNIT   1019 AT TIME STEP     19, STRESS PERIOD      2
 UBDSV1 SAVING     FLOW-JA-FACE ON UNIT   1019 AT TIME STEP     19, STRESS PERIOD      2
 UBDSV06 SAVING              GHB IN MODEL EXPERIMENTAL     PACKAGE EXPERIMENTAL    CONNECTED TO MODEL EXPERIMENTAL     PACKAGE GHB              ON UNIT   1019 AT TIME STEP     19, STRESS PERIOD      2
 UBDSV06 SAVING              RCH IN MODEL EXPERIMENTAL     PACKAGE EXPERIMENTAL    CONNECTED TO MODEL EXPERIMENTAL     PACKAGE RCH              ON UNIT   1019 AT TIME STEP     19, STRESS PERIOD      2
 UBDSV06 SAVING              SFR IN MODEL EXPERIMENTAL     PACKAGE EXPERIMENTAL    CONNECTED TO MODEL EXPERIMENTAL     PACKAGE SFR              ON UNIT   1019 AT TIME STEP     19, STRESS PERIOD      2
 UBDSV06 SAVING     FLOW-JA-FACE IN MODEL EXPERIMENTAL     PACKAGE SFR             CONNECTED TO MODEL EXPERIMENTAL     PACKAGE SFR              ON UNIT   1015 AT TIME STEP     19, STRESS PERIOD      2
 UBDSV06 SAVING              GWF IN MODEL EXPERIMENTAL     PACKAGE SFR             CONNECTED TO MODEL EXPERIMENTAL     PACKAGE EXPERIMENTAL     ON UNIT   1015 AT TIME STEP     19, STRESS PERIOD      2
 UBDSV06 SAVING         RAINFALL IN MODEL EXPERIMENTAL     PACKAGE SFR             CONNECTED TO MODEL EXPERIMENTAL     PACKAGE SFR              ON UNIT   1015 AT TIME STEP     19, STRESS PERIOD      2
 UBDSV06 SAVING      EVAPORATION IN MODEL EXPERIMENTAL     PACKAGE SFR             CONNECTED TO MODEL EXPERIMENTAL     PACKAGE SFR              ON UNIT   1015 AT TIME STEP     19, STRESS PERIOD      2
 UBDSV06 SAVING           RUNOFF IN MODEL EXPERIMENTAL     PACKAGE SFR             CONNECTED TO MODEL EXPERIMENTAL     PACKAGE SFR              ON UNIT   1015 AT TIME STEP     19, STRESS PERIOD      2
 UBDSV06 SAVING       EXT-INFLOW IN MODEL EXPERIMENTAL     PACKAGE SFR             CONNECTED TO MODEL EXPERIMENTAL     PACKAGE SFR              ON UNIT   1015 AT TIME STEP     19, STRESS PERIOD      2
 UBDSV06 SAVING      EXT-OUTFLOW IN MODEL EXPERIMENTAL     PACKAGE SFR             CONNECTED TO MODEL EXPERIMENTAL     PACKAGE SFR              ON UNIT   1015 AT TIME STEP     19, STRESS PERIOD      2
 UBDSV06 SAVING          STORAGE IN MODEL EXPERIMENTAL     PACKAGE SFR             CONNECTED TO MODEL EXPERIMENTAL     PACKAGE SFR              ON UNIT   1015 AT TIME STEP     19, STRESS PERIOD      2

 HEAD WILL BE SAVED ON UNIT 1020 AT END OF TIME STEP   19, STRESS PERIOD    2

end timestep


start timestep kper="2" kstp="20" mode="normal"

 UBDSV1 SAVING           STO-SS ON UNIT   1019 AT TIME STEP     20, STRESS PERIOD      2
 UBDSV1 SAVING           STO-SY ON UNIT   1019 AT TIME STEP     20, STRESS PERIOD      2
 UBDSV1 SAVING     FLOW-JA-FACE ON UNIT   1019 AT TIME STEP     20, STRESS PERIOD      2
 UBDSV06 SAVING              GHB IN MODEL EXPERIMENTAL     PACKAGE EXPERIMENTAL    CONNECTED TO MODEL EXPERIMENTAL     PACKAGE GHB              ON UNIT   1019 AT TIME STEP     20, STRESS PERIOD      2
 UBDSV06 SAVING              RCH IN MODEL EXPERIMENTAL     PACKAGE EXPERIMENTAL    CONNECTED TO MODEL EXPERIMENTAL     PACKAGE RCH              ON UNIT   1019 AT TIME STEP     20, STRESS PERIOD      2
 UBDSV06 SAVING              SFR IN MODEL EXPERIMENTAL     PACKAGE EXPERIMENTAL    CONNECTED TO MODEL EXPERIMENTAL     PACKAGE SFR              ON UNIT   1019 AT TIME STEP     20, STRESS PERIOD      2
 UBDSV06 SAVING     FLOW-JA-FACE IN MODEL EXPERIMENTAL     PACKAGE SFR             CONNECTED TO MODEL EXPERIMENTAL     PACKAGE SFR              ON UNIT   1015 AT TIME STEP     20, STRESS PERIOD      2
 UBDSV06 SAVING              GWF IN MODEL EXPERIMENTAL     PACKAGE SFR             CONNECTED TO MODEL EXPERIMENTAL     PACKAGE EXPERIMENTAL     ON UNIT   1015 AT TIME STEP     20, STRESS PERIOD      2
 UBDSV06 SAVING         RAINFALL IN MODEL EXPERIMENTAL     PACKAGE SFR             CONNECTED TO MODEL EXPERIMENTAL     PACKAGE SFR              ON UNIT   1015 AT TIME STEP     20, STRESS PERIOD      2
 UBDSV06 SAVING      EVAPORATION IN MODEL EXPERIMENTAL     PACKAGE SFR             CONNECTED TO MODEL EXPERIMENTAL     PACKAGE SFR              ON UNIT   1015 AT TIME STEP     20, STRESS PERIOD      2
 UBDSV06 SAVING           RUNOFF IN MODEL EXPERIMENTAL     PACKAGE SFR             CONNECTED TO MODEL EXPERIMENTAL     PACKAGE SFR              ON UNIT   1015 AT TIME STEP     20, STRESS PERIOD      2
 UBDSV06 SAVING       EXT-INFLOW IN MODEL EXPERIMENTAL     PACKAGE SFR             CONNECTED TO MODEL EXPERIMENTAL     PACKAGE SFR              ON UNIT   1015 AT TIME STEP     20, STRESS PERIOD      2
 UBDSV06 SAVING      EXT-OUTFLOW IN MODEL EXPERIMENTAL     PACKAGE SFR             CONNECTED TO MODEL EXPERIMENTAL     PACKAGE SFR              ON UNIT   1015 AT TIME STEP     20, STRESS PERIOD      2
 UBDSV06 SAVING          STORAGE IN MODEL EXPERIMENTAL     PACKAGE SFR             CONNECTED TO MODEL EXPERIMENTAL     PACKAGE SFR              ON UNIT   1015 AT TIME STEP     20, STRESS PERIOD      2

 HEAD WILL BE SAVED ON UNIT 1020 AT END OF TIME STEP   20, STRESS PERIOD    2

end timestep


start timestep kper="2" kstp="21" mode="normal"

 UBDSV1 SAVING           STO-SS ON UNIT   1019 AT TIME STEP     21, STRESS PERIOD      2
 UBDSV1 SAVING           STO-SY ON UNIT   1019 AT TIME STEP     21, STRESS PERIOD      2
 UBDSV1 SAVING     FLOW-JA-FACE ON UNIT   1019 AT TIME STEP     21, STRESS PERIOD      2
 UBDSV06 SAVING              GHB IN MODEL EXPERIMENTAL     PACKAGE EXPERIMENTAL    CONNECTED TO MODEL EXPERIMENTAL     PACKAGE GHB              ON UNIT   1019 AT TIME STEP     21, STRESS PERIOD      2
 UBDSV06 SAVING              RCH IN MODEL EXPERIMENTAL     PACKAGE EXPERIMENTAL    CONNECTED TO MODEL EXPERIMENTAL     PACKAGE RCH              ON UNIT   1019 AT TIME STEP     21, STRESS PERIOD      2
 UBDSV06 SAVING              SFR IN MODEL EXPERIMENTAL     PACKAGE EXPERIMENTAL    CONNECTED TO MODEL EXPERIMENTAL     PACKAGE SFR              ON UNIT   1019 AT TIME STEP     21, STRESS PERIOD      2
 UBDSV06 SAVING     FLOW-JA-FACE IN MODEL EXPERIMENTAL     PACKAGE SFR             CONNECTED TO MODEL EXPERIMENTAL     PACKAGE SFR              ON UNIT   1015 AT TIME STEP     21, STRESS PERIOD      2
 UBDSV06 SAVING              GWF IN MODEL EXPERIMENTAL     PACKAGE SFR             CONNECTED TO MODEL EXPERIMENTAL     PACKAGE EXPERIMENTAL     ON UNIT   1015 AT TIME STEP     21, STRESS PERIOD      2
 UBDSV06 SAVING         RAINFALL IN MODEL EXPERIMENTAL     PACKAGE SFR             CONNECTED TO MODEL EXPERIMENTAL     PACKAGE SFR              ON UNIT   1015 AT TIME STEP     21, STRESS PERIOD      2
 UBDSV06 SAVING      EVAPORATION IN MODEL EXPERIMENTAL     PACKAGE SFR             CONNECTED TO MODEL EXPERIMENTAL     PACKAGE SFR              ON UNIT   1015 AT TIME STEP     21, STRESS PERIOD      2
 UBDSV06 SAVING           RUNOFF IN MODEL EXPERIMENTAL     PACKAGE SFR             CONNECTED TO MODEL EXPERIMENTAL     PACKAGE SFR              ON UNIT   1015 AT TIME STEP     21, STRESS PERIOD      2
 UBDSV06 SAVING       EXT-INFLOW IN MODEL EXPERIMENTAL     PACKAGE SFR             CONNECTED TO MODEL EXPERIMENTAL     PACKAGE SFR              ON UNIT   1015 AT TIME STEP     21, STRESS PERIOD      2
 UBDSV06 SAVING      EXT-OUTFLOW IN MODEL EXPERIMENTAL     PACKAGE SFR             CONNECTED TO MODEL EXPERIMENTAL     PACKAGE SFR              ON UNIT   1015 AT TIME STEP     21, STRESS PERIOD      2
 UBDSV06 SAVING          STORAGE IN MODEL EXPERIMENTAL     PACKAGE SFR             CONNECTED TO MODEL EXPERIMENTAL     PACKAGE SFR              ON UNIT   1015 AT TIME STEP     21, STRESS PERIOD      2

 HEAD WILL BE SAVED ON UNIT 1020 AT END OF TIME STEP   21, STRESS PERIOD    2

end timestep


start timestep kper="2" kstp="22" mode="normal"

 UBDSV1 SAVING           STO-SS ON UNIT   1019 AT TIME STEP     22, STRESS PERIOD      2
 UBDSV1 SAVING           STO-SY ON UNIT   1019 AT TIME STEP     22, STRESS PERIOD      2
 UBDSV1 SAVING     FLOW-JA-FACE ON UNIT   1019 AT TIME STEP     22, STRESS PERIOD      2
 UBDSV06 SAVING              GHB IN MODEL EXPERIMENTAL     PACKAGE EXPERIMENTAL    CONNECTED TO MODEL EXPERIMENTAL     PACKAGE GHB              ON UNIT   1019 AT TIME STEP     22, STRESS PERIOD      2
 UBDSV06 SAVING              RCH IN MODEL EXPERIMENTAL     PACKAGE EXPERIMENTAL    CONNECTED TO MODEL EXPERIMENTAL     PACKAGE RCH              ON UNIT   1019 AT TIME STEP     22, STRESS PERIOD      2
 UBDSV06 SAVING              SFR IN MODEL EXPERIMENTAL     PACKAGE EXPERIMENTAL    CONNECTED TO MODEL EXPERIMENTAL     PACKAGE SFR              ON UNIT   1019 AT TIME STEP     22, STRESS PERIOD      2
 UBDSV06 SAVING     FLOW-JA-FACE IN MODEL EXPERIMENTAL     PACKAGE SFR             CONNECTED TO MODEL EXPERIMENTAL     PACKAGE SFR              ON UNIT   1015 AT TIME STEP     22, STRESS PERIOD      2
 UBDSV06 SAVING              GWF IN MODEL EXPERIMENTAL     PACKAGE SFR             CONNECTED TO MODEL EXPERIMENTAL     PACKAGE EXPERIMENTAL     ON UNIT   1015 AT TIME STEP     22, STRESS PERIOD      2
 UBDSV06 SAVING         RAINFALL IN MODEL EXPERIMENTAL     PACKAGE SFR             CONNECTED TO MODEL EXPERIMENTAL     PACKAGE SFR              ON UNIT   1015 AT TIME STEP     22, STRESS PERIOD      2
 UBDSV06 SAVING      EVAPORATION IN MODEL EXPERIMENTAL     PACKAGE SFR             CONNECTED TO MODEL EXPERIMENTAL     PACKAGE SFR              ON UNIT   1015 AT TIME STEP     22, STRESS PERIOD      2
 UBDSV06 SAVING           RUNOFF IN MODEL EXPERIMENTAL     PACKAGE SFR             CONNECTED TO MODEL EXPERIMENTAL     PACKAGE SFR              ON UNIT   1015 AT TIME STEP     22, STRESS PERIOD      2
 UBDSV06 SAVING       EXT-INFLOW IN MODEL EXPERIMENTAL     PACKAGE SFR             CONNECTED TO MODEL EXPERIMENTAL     PACKAGE SFR              ON UNIT   1015 AT TIME STEP     22, STRESS PERIOD      2
 UBDSV06 SAVING      EXT-OUTFLOW IN MODEL EXPERIMENTAL     PACKAGE SFR             CONNECTED TO MODEL EXPERIMENTAL     PACKAGE SFR              ON UNIT   1015 AT TIME STEP     22, STRESS PERIOD      2
 UBDSV06 SAVING          STORAGE IN MODEL EXPERIMENTAL     PACKAGE SFR             CONNECTED TO MODEL EXPERIMENTAL     PACKAGE SFR              ON UNIT   1015 AT TIME STEP     22, STRESS PERIOD      2

 HEAD WILL BE SAVED ON UNIT 1020 AT END OF TIME STEP   22, STRESS PERIOD    2

end timestep


start timestep kper="2" kstp="23" mode="normal"

 UBDSV1 SAVING           STO-SS ON UNIT   1019 AT TIME STEP     23, STRESS PERIOD      2
 UBDSV1 SAVING           STO-SY ON UNIT   1019 AT TIME STEP     23, STRESS PERIOD      2
 UBDSV1 SAVING     FLOW-JA-FACE ON UNIT   1019 AT TIME STEP     23, STRESS PERIOD      2
 UBDSV06 SAVING              GHB IN MODEL EXPERIMENTAL     PACKAGE EXPERIMENTAL    CONNECTED TO MODEL EXPERIMENTAL     PACKAGE GHB              ON UNIT   1019 AT TIME STEP     23, STRESS PERIOD      2
 UBDSV06 SAVING              RCH IN MODEL EXPERIMENTAL     PACKAGE EXPERIMENTAL    CONNECTED TO MODEL EXPERIMENTAL     PACKAGE RCH              ON UNIT   1019 AT TIME STEP     23, STRESS PERIOD      2
 UBDSV06 SAVING              SFR IN MODEL EXPERIMENTAL     PACKAGE EXPERIMENTAL    CONNECTED TO MODEL EXPERIMENTAL     PACKAGE SFR              ON UNIT   1019 AT TIME STEP     23, STRESS PERIOD      2
 UBDSV06 SAVING     FLOW-JA-FACE IN MODEL EXPERIMENTAL     PACKAGE SFR             CONNECTED TO MODEL EXPERIMENTAL     PACKAGE SFR              ON UNIT   1015 AT TIME STEP     23, STRESS PERIOD      2
 UBDSV06 SAVING              GWF IN MODEL EXPERIMENTAL     PACKAGE SFR             CONNECTED TO MODEL EXPERIMENTAL     PACKAGE EXPERIMENTAL     ON UNIT   1015 AT TIME STEP     23, STRESS PERIOD      2
 UBDSV06 SAVING         RAINFALL IN MODEL EXPERIMENTAL     PACKAGE SFR             CONNECTED TO MODEL EXPERIMENTAL     PACKAGE SFR              ON UNIT   1015 AT TIME STEP     23, STRESS PERIOD      2
 UBDSV06 SAVING      EVAPORATION IN MODEL EXPERIMENTAL     PACKAGE SFR             CONNECTED TO MODEL EXPERIMENTAL     PACKAGE SFR              ON UNIT   1015 AT TIME STEP     23, STRESS PERIOD      2
 UBDSV06 SAVING           RUNOFF IN MODEL EXPERIMENTAL     PACKAGE SFR             CONNECTED TO MODEL EXPERIMENTAL     PACKAGE SFR              ON UNIT   1015 AT TIME STEP     23, STRESS PERIOD      2
 UBDSV06 SAVING       EXT-INFLOW IN MODEL EXPERIMENTAL     PACKAGE SFR             CONNECTED TO MODEL EXPERIMENTAL     PACKAGE SFR              ON UNIT   1015 AT TIME STEP     23, STRESS PERIOD      2
 UBDSV06 SAVING      EXT-OUTFLOW IN MODEL EXPERIMENTAL     PACKAGE SFR             CONNECTED TO MODEL EXPERIMENTAL     PACKAGE SFR              ON UNIT   1015 AT TIME STEP     23, STRESS PERIOD      2
 UBDSV06 SAVING          STORAGE IN MODEL EXPERIMENTAL     PACKAGE SFR             CONNECTED TO MODEL EXPERIMENTAL     PACKAGE SFR              ON UNIT   1015 AT TIME STEP     23, STRESS PERIOD      2

 HEAD WILL BE SAVED ON UNIT 1020 AT END OF TIME STEP   23, STRESS PERIOD    2

end timestep


start timestep kper="2" kstp="24" mode="normal"

 UBDSV1 SAVING           STO-SS ON UNIT   1019 AT TIME STEP     24, STRESS PERIOD      2
 UBDSV1 SAVING           STO-SY ON UNIT   1019 AT TIME STEP     24, STRESS PERIOD      2
 UBDSV1 SAVING     FLOW-JA-FACE ON UNIT   1019 AT TIME STEP     24, STRESS PERIOD      2
 UBDSV06 SAVING              GHB IN MODEL EXPERIMENTAL     PACKAGE EXPERIMENTAL    CONNECTED TO MODEL EXPERIMENTAL     PACKAGE GHB              ON UNIT   1019 AT TIME STEP     24, STRESS PERIOD      2
 UBDSV06 SAVING              RCH IN MODEL EXPERIMENTAL     PACKAGE EXPERIMENTAL    CONNECTED TO MODEL EXPERIMENTAL     PACKAGE RCH              ON UNIT   1019 AT TIME STEP     24, STRESS PERIOD      2
 UBDSV06 SAVING              SFR IN MODEL EXPERIMENTAL     PACKAGE EXPERIMENTAL    CONNECTED TO MODEL EXPERIMENTAL     PACKAGE SFR              ON UNIT   1019 AT TIME STEP     24, STRESS PERIOD      2
 UBDSV06 SAVING     FLOW-JA-FACE IN MODEL EXPERIMENTAL     PACKAGE SFR             CONNECTED TO MODEL EXPERIMENTAL     PACKAGE SFR              ON UNIT   1015 AT TIME STEP     24, STRESS PERIOD      2
 UBDSV06 SAVING              GWF IN MODEL EXPERIMENTAL     PACKAGE SFR             CONNECTED TO MODEL EXPERIMENTAL     PACKAGE EXPERIMENTAL     ON UNIT   1015 AT TIME STEP     24, STRESS PERIOD      2
 UBDSV06 SAVING         RAINFALL IN MODEL EXPERIMENTAL     PACKAGE SFR             CONNECTED TO MODEL EXPERIMENTAL     PACKAGE SFR              ON UNIT   1015 AT TIME STEP     24, STRESS PERIOD      2
 UBDSV06 SAVING      EVAPORATION IN MODEL EXPERIMENTAL     PACKAGE SFR             CONNECTED TO MODEL EXPERIMENTAL     PACKAGE SFR              ON UNIT   1015 AT TIME STEP     24, STRESS PERIOD      2
 UBDSV06 SAVING           RUNOFF IN MODEL EXPERIMENTAL     PACKAGE SFR             CONNECTED TO MODEL EXPERIMENTAL     PACKAGE SFR              ON UNIT   1015 AT TIME STEP     24, STRESS PERIOD      2
 UBDSV06 SAVING       EXT-INFLOW IN MODEL EXPERIMENTAL     PACKAGE SFR             CONNECTED TO MODEL EXPERIMENTAL     PACKAGE SFR              ON UNIT   1015 AT TIME STEP     24, STRESS PERIOD      2
 UBDSV06 SAVING      EXT-OUTFLOW IN MODEL EXPERIMENTAL     PACKAGE SFR             CONNECTED TO MODEL EXPERIMENTAL     PACKAGE SFR              ON UNIT   1015 AT TIME STEP     24, STRESS PERIOD      2
 UBDSV06 SAVING          STORAGE IN MODEL EXPERIMENTAL     PACKAGE SFR             CONNECTED TO MODEL EXPERIMENTAL     PACKAGE SFR              ON UNIT   1015 AT TIME STEP     24, STRESS PERIOD      2

 HEAD WILL BE SAVED ON UNIT 1020 AT END OF TIME STEP   24, STRESS PERIOD    2

end timestep


start timestep kper="2" kstp="25" mode="normal"

 UBDSV1 SAVING           STO-SS ON UNIT   1019 AT TIME STEP     25, STRESS PERIOD      2
 UBDSV1 SAVING           STO-SY ON UNIT   1019 AT TIME STEP     25, STRESS PERIOD      2
 UBDSV1 SAVING     FLOW-JA-FACE ON UNIT   1019 AT TIME STEP     25, STRESS PERIOD      2
 UBDSV06 SAVING              GHB IN MODEL EXPERIMENTAL     PACKAGE EXPERIMENTAL    CONNECTED TO MODEL EXPERIMENTAL     PACKAGE GHB              ON UNIT   1019 AT TIME STEP     25, STRESS PERIOD      2
 UBDSV06 SAVING              RCH IN MODEL EXPERIMENTAL     PACKAGE EXPERIMENTAL    CONNECTED TO MODEL EXPERIMENTAL     PACKAGE RCH              ON UNIT   1019 AT TIME STEP     25, STRESS PERIOD      2
 UBDSV06 SAVING              SFR IN MODEL EXPERIMENTAL     PACKAGE EXPERIMENTAL    CONNECTED TO MODEL EXPERIMENTAL     PACKAGE SFR              ON UNIT   1019 AT TIME STEP     25, STRESS PERIOD      2
 UBDSV06 SAVING     FLOW-JA-FACE IN MODEL EXPERIMENTAL     PACKAGE SFR             CONNECTED TO MODEL EXPERIMENTAL     PACKAGE SFR              ON UNIT   1015 AT TIME STEP     25, STRESS PERIOD      2
 UBDSV06 SAVING              GWF IN MODEL EXPERIMENTAL     PACKAGE SFR             CONNECTED TO MODEL EXPERIMENTAL     PACKAGE EXPERIMENTAL     ON UNIT   1015 AT TIME STEP     25, STRESS PERIOD      2
 UBDSV06 SAVING         RAINFALL IN MODEL EXPERIMENTAL     PACKAGE SFR             CONNECTED TO MODEL EXPERIMENTAL     PACKAGE SFR              ON UNIT   1015 AT TIME STEP     25, STRESS PERIOD      2
 UBDSV06 SAVING      EVAPORATION IN MODEL EXPERIMENTAL     PACKAGE SFR             CONNECTED TO MODEL EXPERIMENTAL     PACKAGE SFR              ON UNIT   1015 AT TIME STEP     25, STRESS PERIOD      2
 UBDSV06 SAVING           RUNOFF IN MODEL EXPERIMENTAL     PACKAGE SFR             CONNECTED TO MODEL EXPERIMENTAL     PACKAGE SFR              ON UNIT   1015 AT TIME STEP     25, STRESS PERIOD      2
 UBDSV06 SAVING       EXT-INFLOW IN MODEL EXPERIMENTAL     PACKAGE SFR             CONNECTED TO MODEL EXPERIMENTAL     PACKAGE SFR              ON UNIT   1015 AT TIME STEP     25, STRESS PERIOD      2
 UBDSV06 SAVING      EXT-OUTFLOW IN MODEL EXPERIMENTAL     PACKAGE SFR             CONNECTED TO MODEL EXPERIMENTAL     PACKAGE SFR              ON UNIT   1015 AT TIME STEP     25, STRESS PERIOD      2
 UBDSV06 SAVING          STORAGE IN MODEL EXPERIMENTAL     PACKAGE SFR             CONNECTED TO MODEL EXPERIMENTAL     PACKAGE SFR              ON UNIT   1015 AT TIME STEP     25, STRESS PERIOD      2

 HEAD WILL BE SAVED ON UNIT 1020 AT END OF TIME STEP   25, STRESS PERIOD    2

end timestep


start timestep kper="2" kstp="26" mode="normal"

 UBDSV1 SAVING           STO-SS ON UNIT   1019 AT TIME STEP     26, STRESS PERIOD      2
 UBDSV1 SAVING           STO-SY ON UNIT   1019 AT TIME STEP     26, STRESS PERIOD      2
 UBDSV1 SAVING     FLOW-JA-FACE ON UNIT   1019 AT TIME STEP     26, STRESS PERIOD      2
 UBDSV06 SAVING              GHB IN MODEL EXPERIMENTAL     PACKAGE EXPERIMENTAL    CONNECTED TO MODEL EXPERIMENTAL     PACKAGE GHB              ON UNIT   1019 AT TIME STEP     26, STRESS PERIOD      2
 UBDSV06 SAVING              RCH IN MODEL EXPERIMENTAL     PACKAGE EXPERIMENTAL    CONNECTED TO MODEL EXPERIMENTAL     PACKAGE RCH              ON UNIT   1019 AT TIME STEP     26, STRESS PERIOD      2
 UBDSV06 SAVING              SFR IN MODEL EXPERIMENTAL     PACKAGE EXPERIMENTAL    CONNECTED TO MODEL EXPERIMENTAL     PACKAGE SFR              ON UNIT   1019 AT TIME STEP     26, STRESS PERIOD      2
 UBDSV06 SAVING     FLOW-JA-FACE IN MODEL EXPERIMENTAL     PACKAGE SFR             CONNECTED TO MODEL EXPERIMENTAL     PACKAGE SFR              ON UNIT   1015 AT TIME STEP     26, STRESS PERIOD      2
 UBDSV06 SAVING              GWF IN MODEL EXPERIMENTAL     PACKAGE SFR             CONNECTED TO MODEL EXPERIMENTAL     PACKAGE EXPERIMENTAL     ON UNIT   1015 AT TIME STEP     26, STRESS PERIOD      2
 UBDSV06 SAVING         RAINFALL IN MODEL EXPERIMENTAL     PACKAGE SFR             CONNECTED TO MODEL EXPERIMENTAL     PACKAGE SFR              ON UNIT   1015 AT TIME STEP     26, STRESS PERIOD      2
 UBDSV06 SAVING      EVAPORATION IN MODEL EXPERIMENTAL     PACKAGE SFR             CONNECTED TO MODEL EXPERIMENTAL     PACKAGE SFR              ON UNIT   1015 AT TIME STEP     26, STRESS PERIOD      2
 UBDSV06 SAVING           RUNOFF IN MODEL EXPERIMENTAL     PACKAGE SFR             CONNECTED TO MODEL EXPERIMENTAL     PACKAGE SFR              ON UNIT   1015 AT TIME STEP     26, STRESS PERIOD      2
 UBDSV06 SAVING       EXT-INFLOW IN MODEL EXPERIMENTAL     PACKAGE SFR             CONNECTED TO MODEL EXPERIMENTAL     PACKAGE SFR              ON UNIT   1015 AT TIME STEP     26, STRESS PERIOD      2
 UBDSV06 SAVING      EXT-OUTFLOW IN MODEL EXPERIMENTAL     PACKAGE SFR             CONNECTED TO MODEL EXPERIMENTAL     PACKAGE SFR              ON UNIT   1015 AT TIME STEP     26, STRESS PERIOD      2
 UBDSV06 SAVING          STORAGE IN MODEL EXPERIMENTAL     PACKAGE SFR             CONNECTED TO MODEL EXPERIMENTAL     PACKAGE SFR              ON UNIT   1015 AT TIME STEP     26, STRESS PERIOD      2

 HEAD WILL BE SAVED ON UNIT 1020 AT END OF TIME STEP   26, STRESS PERIOD    2

end timestep


start timestep kper="2" kstp="27" mode="normal"

 UBDSV1 SAVING           STO-SS ON UNIT   1019 AT TIME STEP     27, STRESS PERIOD      2
 UBDSV1 SAVING           STO-SY ON UNIT   1019 AT TIME STEP     27, STRESS PERIOD      2
 UBDSV1 SAVING     FLOW-JA-FACE ON UNIT   1019 AT TIME STEP     27, STRESS PERIOD      2
 UBDSV06 SAVING              GHB IN MODEL EXPERIMENTAL     PACKAGE EXPERIMENTAL    CONNECTED TO MODEL EXPERIMENTAL     PACKAGE GHB              ON UNIT   1019 AT TIME STEP     27, STRESS PERIOD      2
 UBDSV06 SAVING              RCH IN MODEL EXPERIMENTAL     PACKAGE EXPERIMENTAL    CONNECTED TO MODEL EXPERIMENTAL     PACKAGE RCH              ON UNIT   1019 AT TIME STEP     27, STRESS PERIOD      2
 UBDSV06 SAVING              SFR IN MODEL EXPERIMENTAL     PACKAGE EXPERIMENTAL    CONNECTED TO MODEL EXPERIMENTAL     PACKAGE SFR              ON UNIT   1019 AT TIME STEP     27, STRESS PERIOD      2
 UBDSV06 SAVING     FLOW-JA-FACE IN MODEL EXPERIMENTAL     PACKAGE SFR             CONNECTED TO MODEL EXPERIMENTAL     PACKAGE SFR              ON UNIT   1015 AT TIME STEP     27, STRESS PERIOD      2
 UBDSV06 SAVING              GWF IN MODEL EXPERIMENTAL     PACKAGE SFR             CONNECTED TO MODEL EXPERIMENTAL     PACKAGE EXPERIMENTAL     ON UNIT   1015 AT TIME STEP     27, STRESS PERIOD      2
 UBDSV06 SAVING         RAINFALL IN MODEL EXPERIMENTAL     PACKAGE SFR             CONNECTED TO MODEL EXPERIMENTAL     PACKAGE SFR              ON UNIT   1015 AT TIME STEP     27, STRESS PERIOD      2
 UBDSV06 SAVING      EVAPORATION IN MODEL EXPERIMENTAL     PACKAGE SFR             CONNECTED TO MODEL EXPERIMENTAL     PACKAGE SFR              ON UNIT   1015 AT TIME STEP     27, STRESS PERIOD      2
 UBDSV06 SAVING           RUNOFF IN MODEL EXPERIMENTAL     PACKAGE SFR             CONNECTED TO MODEL EXPERIMENTAL     PACKAGE SFR              ON UNIT   1015 AT TIME STEP     27, STRESS PERIOD      2
 UBDSV06 SAVING       EXT-INFLOW IN MODEL EXPERIMENTAL     PACKAGE SFR             CONNECTED TO MODEL EXPERIMENTAL     PACKAGE SFR              ON UNIT   1015 AT TIME STEP     27, STRESS PERIOD      2
 UBDSV06 SAVING      EXT-OUTFLOW IN MODEL EXPERIMENTAL     PACKAGE SFR             CONNECTED TO MODEL EXPERIMENTAL     PACKAGE SFR              ON UNIT   1015 AT TIME STEP     27, STRESS PERIOD      2
 UBDSV06 SAVING          STORAGE IN MODEL EXPERIMENTAL     PACKAGE SFR             CONNECTED TO MODEL EXPERIMENTAL     PACKAGE SFR              ON UNIT   1015 AT TIME STEP     27, STRESS PERIOD      2

 HEAD WILL BE SAVED ON UNIT 1020 AT END OF TIME STEP   27, STRESS PERIOD    2

end timestep


start timestep kper="2" kstp="28" mode="normal"

 UBDSV1 SAVING           STO-SS ON UNIT   1019 AT TIME STEP     28, STRESS PERIOD      2
 UBDSV1 SAVING           STO-SY ON UNIT   1019 AT TIME STEP     28, STRESS PERIOD      2
 UBDSV1 SAVING     FLOW-JA-FACE ON UNIT   1019 AT TIME STEP     28, STRESS PERIOD      2
 UBDSV06 SAVING              GHB IN MODEL EXPERIMENTAL     PACKAGE EXPERIMENTAL    CONNECTED TO MODEL EXPERIMENTAL     PACKAGE GHB              ON UNIT   1019 AT TIME STEP     28, STRESS PERIOD      2
 UBDSV06 SAVING              RCH IN MODEL EXPERIMENTAL     PACKAGE EXPERIMENTAL    CONNECTED TO MODEL EXPERIMENTAL     PACKAGE RCH              ON UNIT   1019 AT TIME STEP     28, STRESS PERIOD      2
 UBDSV06 SAVING              SFR IN MODEL EXPERIMENTAL     PACKAGE EXPERIMENTAL    CONNECTED TO MODEL EXPERIMENTAL     PACKAGE SFR              ON UNIT   1019 AT TIME STEP     28, STRESS PERIOD      2
 UBDSV06 SAVING     FLOW-JA-FACE IN MODEL EXPERIMENTAL     PACKAGE SFR             CONNECTED TO MODEL EXPERIMENTAL     PACKAGE SFR              ON UNIT   1015 AT TIME STEP     28, STRESS PERIOD      2
 UBDSV06 SAVING              GWF IN MODEL EXPERIMENTAL     PACKAGE SFR             CONNECTED TO MODEL EXPERIMENTAL     PACKAGE EXPERIMENTAL     ON UNIT   1015 AT TIME STEP     28, STRESS PERIOD      2
 UBDSV06 SAVING         RAINFALL IN MODEL EXPERIMENTAL     PACKAGE SFR             CONNECTED TO MODEL EXPERIMENTAL     PACKAGE SFR              ON UNIT   1015 AT TIME STEP     28, STRESS PERIOD      2
 UBDSV06 SAVING      EVAPORATION IN MODEL EXPERIMENTAL     PACKAGE SFR             CONNECTED TO MODEL EXPERIMENTAL     PACKAGE SFR              ON UNIT   1015 AT TIME STEP     28, STRESS PERIOD      2
 UBDSV06 SAVING           RUNOFF IN MODEL EXPERIMENTAL     PACKAGE SFR             CONNECTED TO MODEL EXPERIMENTAL     PACKAGE SFR              ON UNIT   1015 AT TIME STEP     28, STRESS PERIOD      2
 UBDSV06 SAVING       EXT-INFLOW IN MODEL EXPERIMENTAL     PACKAGE SFR             CONNECTED TO MODEL EXPERIMENTAL     PACKAGE SFR              ON UNIT   1015 AT TIME STEP     28, STRESS PERIOD      2
 UBDSV06 SAVING      EXT-OUTFLOW IN MODEL EXPERIMENTAL     PACKAGE SFR             CONNECTED TO MODEL EXPERIMENTAL     PACKAGE SFR              ON UNIT   1015 AT TIME STEP     28, STRESS PERIOD      2
 UBDSV06 SAVING          STORAGE IN MODEL EXPERIMENTAL     PACKAGE SFR             CONNECTED TO MODEL EXPERIMENTAL     PACKAGE SFR              ON UNIT   1015 AT TIME STEP     28, STRESS PERIOD      2

 HEAD WILL BE SAVED ON UNIT 1020 AT END OF TIME STEP   28, STRESS PERIOD    2

end timestep


start timestep kper="2" kstp="29" mode="normal"

 UBDSV1 SAVING           STO-SS ON UNIT   1019 AT TIME STEP     29, STRESS PERIOD      2
 UBDSV1 SAVING           STO-SY ON UNIT   1019 AT TIME STEP     29, STRESS PERIOD      2
 UBDSV1 SAVING     FLOW-JA-FACE ON UNIT   1019 AT TIME STEP     29, STRESS PERIOD      2
 UBDSV06 SAVING              GHB IN MODEL EXPERIMENTAL     PACKAGE EXPERIMENTAL    CONNECTED TO MODEL EXPERIMENTAL     PACKAGE GHB              ON UNIT   1019 AT TIME STEP     29, STRESS PERIOD      2
 UBDSV06 SAVING              RCH IN MODEL EXPERIMENTAL     PACKAGE EXPERIMENTAL    CONNECTED TO MODEL EXPERIMENTAL     PACKAGE RCH              ON UNIT   1019 AT TIME STEP     29, STRESS PERIOD      2
 UBDSV06 SAVING              SFR IN MODEL EXPERIMENTAL     PACKAGE EXPERIMENTAL    CONNECTED TO MODEL EXPERIMENTAL     PACKAGE SFR              ON UNIT   1019 AT TIME STEP     29, STRESS PERIOD      2
 UBDSV06 SAVING     FLOW-JA-FACE IN MODEL EXPERIMENTAL     PACKAGE SFR             CONNECTED TO MODEL EXPERIMENTAL     PACKAGE SFR              ON UNIT   1015 AT TIME STEP     29, STRESS PERIOD      2
 UBDSV06 SAVING              GWF IN MODEL EXPERIMENTAL     PACKAGE SFR             CONNECTED TO MODEL EXPERIMENTAL     PACKAGE EXPERIMENTAL     ON UNIT   1015 AT TIME STEP     29, STRESS PERIOD      2
 UBDSV06 SAVING         RAINFALL IN MODEL EXPERIMENTAL     PACKAGE SFR             CONNECTED TO MODEL EXPERIMENTAL     PACKAGE SFR              ON UNIT   1015 AT TIME STEP     29, STRESS PERIOD      2
 UBDSV06 SAVING      EVAPORATION IN MODEL EXPERIMENTAL     PACKAGE SFR             CONNECTED TO MODEL EXPERIMENTAL     PACKAGE SFR              ON UNIT   1015 AT TIME STEP     29, STRESS PERIOD      2
 UBDSV06 SAVING           RUNOFF IN MODEL EXPERIMENTAL     PACKAGE SFR             CONNECTED TO MODEL EXPERIMENTAL     PACKAGE SFR              ON UNIT   1015 AT TIME STEP     29, STRESS PERIOD      2
 UBDSV06 SAVING       EXT-INFLOW IN MODEL EXPERIMENTAL     PACKAGE SFR             CONNECTED TO MODEL EXPERIMENTAL     PACKAGE SFR              ON UNIT   1015 AT TIME STEP     29, STRESS PERIOD      2
 UBDSV06 SAVING      EXT-OUTFLOW IN MODEL EXPERIMENTAL     PACKAGE SFR             CONNECTED TO MODEL EXPERIMENTAL     PACKAGE SFR              ON UNIT   1015 AT TIME STEP     29, STRESS PERIOD      2
 UBDSV06 SAVING          STORAGE IN MODEL EXPERIMENTAL     PACKAGE SFR             CONNECTED TO MODEL EXPERIMENTAL     PACKAGE SFR              ON UNIT   1015 AT TIME STEP     29, STRESS PERIOD      2

 HEAD WILL BE SAVED ON UNIT 1020 AT END OF TIME STEP   29, STRESS PERIOD    2

end timestep


start timestep kper="2" kstp="30" mode="normal"

 UBDSV1 SAVING           STO-SS ON UNIT   1019 AT TIME STEP     30, STRESS PERIOD      2
 UBDSV1 SAVING           STO-SY ON UNIT   1019 AT TIME STEP     30, STRESS PERIOD      2
 UBDSV1 SAVING     FLOW-JA-FACE ON UNIT   1019 AT TIME STEP     30, STRESS PERIOD      2
 UBDSV06 SAVING              GHB IN MODEL EXPERIMENTAL     PACKAGE EXPERIMENTAL    CONNECTED TO MODEL EXPERIMENTAL     PACKAGE GHB              ON UNIT   1019 AT TIME STEP     30, STRESS PERIOD      2
 UBDSV06 SAVING              RCH IN MODEL EXPERIMENTAL     PACKAGE EXPERIMENTAL    CONNECTED TO MODEL EXPERIMENTAL     PACKAGE RCH              ON UNIT   1019 AT TIME STEP     30, STRESS PERIOD      2
 UBDSV06 SAVING              SFR IN MODEL EXPERIMENTAL     PACKAGE EXPERIMENTAL    CONNECTED TO MODEL EXPERIMENTAL     PACKAGE SFR              ON UNIT   1019 AT TIME STEP     30, STRESS PERIOD      2
 UBDSV06 SAVING     FLOW-JA-FACE IN MODEL EXPERIMENTAL     PACKAGE SFR             CONNECTED TO MODEL EXPERIMENTAL     PACKAGE SFR              ON UNIT   1015 AT TIME STEP     30, STRESS PERIOD      2
 UBDSV06 SAVING              GWF IN MODEL EXPERIMENTAL     PACKAGE SFR             CONNECTED TO MODEL EXPERIMENTAL     PACKAGE EXPERIMENTAL     ON UNIT   1015 AT TIME STEP     30, STRESS PERIOD      2
 UBDSV06 SAVING         RAINFALL IN MODEL EXPERIMENTAL     PACKAGE SFR             CONNECTED TO MODEL EXPERIMENTAL     PACKAGE SFR              ON UNIT   1015 AT TIME STEP     30, STRESS PERIOD      2
 UBDSV06 SAVING      EVAPORATION IN MODEL EXPERIMENTAL     PACKAGE SFR             CONNECTED TO MODEL EXPERIMENTAL     PACKAGE SFR              ON UNIT   1015 AT TIME STEP     30, STRESS PERIOD      2
 UBDSV06 SAVING           RUNOFF IN MODEL EXPERIMENTAL     PACKAGE SFR             CONNECTED TO MODEL EXPERIMENTAL     PACKAGE SFR              ON UNIT   1015 AT TIME STEP     30, STRESS PERIOD      2
 UBDSV06 SAVING       EXT-INFLOW IN MODEL EXPERIMENTAL     PACKAGE SFR             CONNECTED TO MODEL EXPERIMENTAL     PACKAGE SFR              ON UNIT   1015 AT TIME STEP     30, STRESS PERIOD      2
 UBDSV06 SAVING      EXT-OUTFLOW IN MODEL EXPERIMENTAL     PACKAGE SFR             CONNECTED TO MODEL EXPERIMENTAL     PACKAGE SFR              ON UNIT   1015 AT TIME STEP     30, STRESS PERIOD      2
 UBDSV06 SAVING          STORAGE IN MODEL EXPERIMENTAL     PACKAGE SFR             CONNECTED TO MODEL EXPERIMENTAL     PACKAGE SFR              ON UNIT   1015 AT TIME STEP     30, STRESS PERIOD      2

 HEAD WILL BE SAVED ON UNIT 1020 AT END OF TIME STEP   30, STRESS PERIOD    2

end timestep


start timestep kper="2" kstp="31" mode="normal"

 UBDSV1 SAVING           STO-SS ON UNIT   1019 AT TIME STEP     31, STRESS PERIOD      2
 UBDSV1 SAVING           STO-SY ON UNIT   1019 AT TIME STEP     31, STRESS PERIOD      2
 UBDSV1 SAVING     FLOW-JA-FACE ON UNIT   1019 AT TIME STEP     31, STRESS PERIOD      2
 UBDSV06 SAVING              GHB IN MODEL EXPERIMENTAL     PACKAGE EXPERIMENTAL    CONNECTED TO MODEL EXPERIMENTAL     PACKAGE GHB              ON UNIT   1019 AT TIME STEP     31, STRESS PERIOD      2
 UBDSV06 SAVING              RCH IN MODEL EXPERIMENTAL     PACKAGE EXPERIMENTAL    CONNECTED TO MODEL EXPERIMENTAL     PACKAGE RCH              ON UNIT   1019 AT TIME STEP     31, STRESS PERIOD      2
 UBDSV06 SAVING              SFR IN MODEL EXPERIMENTAL     PACKAGE EXPERIMENTAL    CONNECTED TO MODEL EXPERIMENTAL     PACKAGE SFR              ON UNIT   1019 AT TIME STEP     31, STRESS PERIOD      2
 UBDSV06 SAVING     FLOW-JA-FACE IN MODEL EXPERIMENTAL     PACKAGE SFR             CONNECTED TO MODEL EXPERIMENTAL     PACKAGE SFR              ON UNIT   1015 AT TIME STEP     31, STRESS PERIOD      2
 UBDSV06 SAVING              GWF IN MODEL EXPERIMENTAL     PACKAGE SFR             CONNECTED TO MODEL EXPERIMENTAL     PACKAGE EXPERIMENTAL     ON UNIT   1015 AT TIME STEP     31, STRESS PERIOD      2
 UBDSV06 SAVING         RAINFALL IN MODEL EXPERIMENTAL     PACKAGE SFR             CONNECTED TO MODEL EXPERIMENTAL     PACKAGE SFR              ON UNIT   1015 AT TIME STEP     31, STRESS PERIOD      2
 UBDSV06 SAVING      EVAPORATION IN MODEL EXPERIMENTAL     PACKAGE SFR             CONNECTED TO MODEL EXPERIMENTAL     PACKAGE SFR              ON UNIT   1015 AT TIME STEP     31, STRESS PERIOD      2
 UBDSV06 SAVING           RUNOFF IN MODEL EXPERIMENTAL     PACKAGE SFR             CONNECTED TO MODEL EXPERIMENTAL     PACKAGE SFR              ON UNIT   1015 AT TIME STEP     31, STRESS PERIOD      2
 UBDSV06 SAVING       EXT-INFLOW IN MODEL EXPERIMENTAL     PACKAGE SFR             CONNECTED TO MODEL EXPERIMENTAL     PACKAGE SFR              ON UNIT   1015 AT TIME STEP     31, STRESS PERIOD      2
 UBDSV06 SAVING      EXT-OUTFLOW IN MODEL EXPERIMENTAL     PACKAGE SFR             CONNECTED TO MODEL EXPERIMENTAL     PACKAGE SFR              ON UNIT   1015 AT TIME STEP     31, STRESS PERIOD      2
 UBDSV06 SAVING          STORAGE IN MODEL EXPERIMENTAL     PACKAGE SFR             CONNECTED TO MODEL EXPERIMENTAL     PACKAGE SFR              ON UNIT   1015 AT TIME STEP     31, STRESS PERIOD      2

 HEAD WILL BE SAVED ON UNIT 1020 AT END OF TIME STEP   31, STRESS PERIOD    2

end timestep


start timestep kper="2" kstp="32" mode="normal"

 UBDSV1 SAVING           STO-SS ON UNIT   1019 AT TIME STEP     32, STRESS PERIOD      2
 UBDSV1 SAVING           STO-SY ON UNIT   1019 AT TIME STEP     32, STRESS PERIOD      2
 UBDSV1 SAVING     FLOW-JA-FACE ON UNIT   1019 AT TIME STEP     32, STRESS PERIOD      2
 UBDSV06 SAVING              GHB IN MODEL EXPERIMENTAL     PACKAGE EXPERIMENTAL    CONNECTED TO MODEL EXPERIMENTAL     PACKAGE GHB              ON UNIT   1019 AT TIME STEP     32, STRESS PERIOD      2
 UBDSV06 SAVING              RCH IN MODEL EXPERIMENTAL     PACKAGE EXPERIMENTAL    CONNECTED TO MODEL EXPERIMENTAL     PACKAGE RCH              ON UNIT   1019 AT TIME STEP     32, STRESS PERIOD      2
 UBDSV06 SAVING              SFR IN MODEL EXPERIMENTAL     PACKAGE EXPERIMENTAL    CONNECTED TO MODEL EXPERIMENTAL     PACKAGE SFR              ON UNIT   1019 AT TIME STEP     32, STRESS PERIOD      2
 UBDSV06 SAVING     FLOW-JA-FACE IN MODEL EXPERIMENTAL     PACKAGE SFR             CONNECTED TO MODEL EXPERIMENTAL     PACKAGE SFR              ON UNIT   1015 AT TIME STEP     32, STRESS PERIOD      2
 UBDSV06 SAVING              GWF IN MODEL EXPERIMENTAL     PACKAGE SFR             CONNECTED TO MODEL EXPERIMENTAL     PACKAGE EXPERIMENTAL     ON UNIT   1015 AT TIME STEP     32, STRESS PERIOD      2
 UBDSV06 SAVING         RAINFALL IN MODEL EXPERIMENTAL     PACKAGE SFR             CONNECTED TO MODEL EXPERIMENTAL     PACKAGE SFR              ON UNIT   1015 AT TIME STEP     32, STRESS PERIOD      2
 UBDSV06 SAVING      EVAPORATION IN MODEL EXPERIMENTAL     PACKAGE SFR             CONNECTED TO MODEL EXPERIMENTAL     PACKAGE SFR              ON UNIT   1015 AT TIME STEP     32, STRESS PERIOD      2
 UBDSV06 SAVING           RUNOFF IN MODEL EXPERIMENTAL     PACKAGE SFR             CONNECTED TO MODEL EXPERIMENTAL     PACKAGE SFR              ON UNIT   1015 AT TIME STEP     32, STRESS PERIOD      2
 UBDSV06 SAVING       EXT-INFLOW IN MODEL EXPERIMENTAL     PACKAGE SFR             CONNECTED TO MODEL EXPERIMENTAL     PACKAGE SFR              ON UNIT   1015 AT TIME STEP     32, STRESS PERIOD      2
 UBDSV06 SAVING      EXT-OUTFLOW IN MODEL EXPERIMENTAL     PACKAGE SFR             CONNECTED TO MODEL EXPERIMENTAL     PACKAGE SFR              ON UNIT   1015 AT TIME STEP     32, STRESS PERIOD      2
 UBDSV06 SAVING          STORAGE IN MODEL EXPERIMENTAL     PACKAGE SFR             CONNECTED TO MODEL EXPERIMENTAL     PACKAGE SFR              ON UNIT   1015 AT TIME STEP     32, STRESS PERIOD      2

 HEAD WILL BE SAVED ON UNIT 1020 AT END OF TIME STEP   32, STRESS PERIOD    2

end timestep


start timestep kper="2" kstp="33" mode="normal"

 UBDSV1 SAVING           STO-SS ON UNIT   1019 AT TIME STEP     33, STRESS PERIOD      2
 UBDSV1 SAVING           STO-SY ON UNIT   1019 AT TIME STEP     33, STRESS PERIOD      2
 UBDSV1 SAVING     FLOW-JA-FACE ON UNIT   1019 AT TIME STEP     33, STRESS PERIOD      2
 UBDSV06 SAVING              GHB IN MODEL EXPERIMENTAL     PACKAGE EXPERIMENTAL    CONNECTED TO MODEL EXPERIMENTAL     PACKAGE GHB              ON UNIT   1019 AT TIME STEP     33, STRESS PERIOD      2
 UBDSV06 SAVING              RCH IN MODEL EXPERIMENTAL     PACKAGE EXPERIMENTAL    CONNECTED TO MODEL EXPERIMENTAL     PACKAGE RCH              ON UNIT   1019 AT TIME STEP     33, STRESS PERIOD      2
 UBDSV06 SAVING              SFR IN MODEL EXPERIMENTAL     PACKAGE EXPERIMENTAL    CONNECTED TO MODEL EXPERIMENTAL     PACKAGE SFR              ON UNIT   1019 AT TIME STEP     33, STRESS PERIOD      2
 UBDSV06 SAVING     FLOW-JA-FACE IN MODEL EXPERIMENTAL     PACKAGE SFR             CONNECTED TO MODEL EXPERIMENTAL     PACKAGE SFR              ON UNIT   1015 AT TIME STEP     33, STRESS PERIOD      2
 UBDSV06 SAVING              GWF IN MODEL EXPERIMENTAL     PACKAGE SFR             CONNECTED TO MODEL EXPERIMENTAL     PACKAGE EXPERIMENTAL     ON UNIT   1015 AT TIME STEP     33, STRESS PERIOD      2
 UBDSV06 SAVING         RAINFALL IN MODEL EXPERIMENTAL     PACKAGE SFR             CONNECTED TO MODEL EXPERIMENTAL     PACKAGE SFR              ON UNIT   1015 AT TIME STEP     33, STRESS PERIOD      2
 UBDSV06 SAVING      EVAPORATION IN MODEL EXPERIMENTAL     PACKAGE SFR             CONNECTED TO MODEL EXPERIMENTAL     PACKAGE SFR              ON UNIT   1015 AT TIME STEP     33, STRESS PERIOD      2
 UBDSV06 SAVING           RUNOFF IN MODEL EXPERIMENTAL     PACKAGE SFR             CONNECTED TO MODEL EXPERIMENTAL     PACKAGE SFR              ON UNIT   1015 AT TIME STEP     33, STRESS PERIOD      2
 UBDSV06 SAVING       EXT-INFLOW IN MODEL EXPERIMENTAL     PACKAGE SFR             CONNECTED TO MODEL EXPERIMENTAL     PACKAGE SFR              ON UNIT   1015 AT TIME STEP     33, STRESS PERIOD      2
 UBDSV06 SAVING      EXT-OUTFLOW IN MODEL EXPERIMENTAL     PACKAGE SFR             CONNECTED TO MODEL EXPERIMENTAL     PACKAGE SFR              ON UNIT   1015 AT TIME STEP     33, STRESS PERIOD      2
 UBDSV06 SAVING          STORAGE IN MODEL EXPERIMENTAL     PACKAGE SFR             CONNECTED TO MODEL EXPERIMENTAL     PACKAGE SFR              ON UNIT   1015 AT TIME STEP     33, STRESS PERIOD      2

 HEAD WILL BE SAVED ON UNIT 1020 AT END OF TIME STEP   33, STRESS PERIOD    2

end timestep


start timestep kper="2" kstp="34" mode="normal"

 UBDSV1 SAVING           STO-SS ON UNIT   1019 AT TIME STEP     34, STRESS PERIOD      2
 UBDSV1 SAVING           STO-SY ON UNIT   1019 AT TIME STEP     34, STRESS PERIOD      2
 UBDSV1 SAVING     FLOW-JA-FACE ON UNIT   1019 AT TIME STEP     34, STRESS PERIOD      2
 UBDSV06 SAVING              GHB IN MODEL EXPERIMENTAL     PACKAGE EXPERIMENTAL    CONNECTED TO MODEL EXPERIMENTAL     PACKAGE GHB              ON UNIT   1019 AT TIME STEP     34, STRESS PERIOD      2
 UBDSV06 SAVING              RCH IN MODEL EXPERIMENTAL     PACKAGE EXPERIMENTAL    CONNECTED TO MODEL EXPERIMENTAL     PACKAGE RCH              ON UNIT   1019 AT TIME STEP     34, STRESS PERIOD      2
 UBDSV06 SAVING              SFR IN MODEL EXPERIMENTAL     PACKAGE EXPERIMENTAL    CONNECTED TO MODEL EXPERIMENTAL     PACKAGE SFR              ON UNIT   1019 AT TIME STEP     34, STRESS PERIOD      2
 UBDSV06 SAVING     FLOW-JA-FACE IN MODEL EXPERIMENTAL     PACKAGE SFR             CONNECTED TO MODEL EXPERIMENTAL     PACKAGE SFR              ON UNIT   1015 AT TIME STEP     34, STRESS PERIOD      2
 UBDSV06 SAVING              GWF IN MODEL EXPERIMENTAL     PACKAGE SFR             CONNECTED TO MODEL EXPERIMENTAL     PACKAGE EXPERIMENTAL     ON UNIT   1015 AT TIME STEP     34, STRESS PERIOD      2
 UBDSV06 SAVING         RAINFALL IN MODEL EXPERIMENTAL     PACKAGE SFR             CONNECTED TO MODEL EXPERIMENTAL     PACKAGE SFR              ON UNIT   1015 AT TIME STEP     34, STRESS PERIOD      2
 UBDSV06 SAVING      EVAPORATION IN MODEL EXPERIMENTAL     PACKAGE SFR             CONNECTED TO MODEL EXPERIMENTAL     PACKAGE SFR              ON UNIT   1015 AT TIME STEP     34, STRESS PERIOD      2
 UBDSV06 SAVING           RUNOFF IN MODEL EXPERIMENTAL     PACKAGE SFR             CONNECTED TO MODEL EXPERIMENTAL     PACKAGE SFR              ON UNIT   1015 AT TIME STEP     34, STRESS PERIOD      2
 UBDSV06 SAVING       EXT-INFLOW IN MODEL EXPERIMENTAL     PACKAGE SFR             CONNECTED TO MODEL EXPERIMENTAL     PACKAGE SFR              ON UNIT   1015 AT TIME STEP     34, STRESS PERIOD      2
 UBDSV06 SAVING      EXT-OUTFLOW IN MODEL EXPERIMENTAL     PACKAGE SFR             CONNECTED TO MODEL EXPERIMENTAL     PACKAGE SFR              ON UNIT   1015 AT TIME STEP     34, STRESS PERIOD      2
 UBDSV06 SAVING          STORAGE IN MODEL EXPERIMENTAL     PACKAGE SFR             CONNECTED TO MODEL EXPERIMENTAL     PACKAGE SFR              ON UNIT   1015 AT TIME STEP     34, STRESS PERIOD      2

 HEAD WILL BE SAVED ON UNIT 1020 AT END OF TIME STEP   34, STRESS PERIOD    2

end timestep


start timestep kper="2" kstp="35" mode="normal"

 UBDSV1 SAVING           STO-SS ON UNIT   1019 AT TIME STEP     35, STRESS PERIOD      2
 UBDSV1 SAVING           STO-SY ON UNIT   1019 AT TIME STEP     35, STRESS PERIOD      2
 UBDSV1 SAVING     FLOW-JA-FACE ON UNIT   1019 AT TIME STEP     35, STRESS PERIOD      2
 UBDSV06 SAVING              GHB IN MODEL EXPERIMENTAL     PACKAGE EXPERIMENTAL    CONNECTED TO MODEL EXPERIMENTAL     PACKAGE GHB              ON UNIT   1019 AT TIME STEP     35, STRESS PERIOD      2
 UBDSV06 SAVING              RCH IN MODEL EXPERIMENTAL     PACKAGE EXPERIMENTAL    CONNECTED TO MODEL EXPERIMENTAL     PACKAGE RCH              ON UNIT   1019 AT TIME STEP     35, STRESS PERIOD      2
 UBDSV06 SAVING              SFR IN MODEL EXPERIMENTAL     PACKAGE EXPERIMENTAL    CONNECTED TO MODEL EXPERIMENTAL     PACKAGE SFR              ON UNIT   1019 AT TIME STEP     35, STRESS PERIOD      2
 UBDSV06 SAVING     FLOW-JA-FACE IN MODEL EXPERIMENTAL     PACKAGE SFR             CONNECTED TO MODEL EXPERIMENTAL     PACKAGE SFR              ON UNIT   1015 AT TIME STEP     35, STRESS PERIOD      2
 UBDSV06 SAVING              GWF IN MODEL EXPERIMENTAL     PACKAGE SFR             CONNECTED TO MODEL EXPERIMENTAL     PACKAGE EXPERIMENTAL     ON UNIT   1015 AT TIME STEP     35, STRESS PERIOD      2
 UBDSV06 SAVING         RAINFALL IN MODEL EXPERIMENTAL     PACKAGE SFR             CONNECTED TO MODEL EXPERIMENTAL     PACKAGE SFR              ON UNIT   1015 AT TIME STEP     35, STRESS PERIOD      2
 UBDSV06 SAVING      EVAPORATION IN MODEL EXPERIMENTAL     PACKAGE SFR             CONNECTED TO MODEL EXPERIMENTAL     PACKAGE SFR              ON UNIT   1015 AT TIME STEP     35, STRESS PERIOD      2
 UBDSV06 SAVING           RUNOFF IN MODEL EXPERIMENTAL     PACKAGE SFR             CONNECTED TO MODEL EXPERIMENTAL     PACKAGE SFR              ON UNIT   1015 AT TIME STEP     35, STRESS PERIOD      2
 UBDSV06 SAVING       EXT-INFLOW IN MODEL EXPERIMENTAL     PACKAGE SFR             CONNECTED TO MODEL EXPERIMENTAL     PACKAGE SFR              ON UNIT   1015 AT TIME STEP     35, STRESS PERIOD      2
 UBDSV06 SAVING      EXT-OUTFLOW IN MODEL EXPERIMENTAL     PACKAGE SFR             CONNECTED TO MODEL EXPERIMENTAL     PACKAGE SFR              ON UNIT   1015 AT TIME STEP     35, STRESS PERIOD      2
 UBDSV06 SAVING          STORAGE IN MODEL EXPERIMENTAL     PACKAGE SFR             CONNECTED TO MODEL EXPERIMENTAL     PACKAGE SFR              ON UNIT   1015 AT TIME STEP     35, STRESS PERIOD      2

 HEAD WILL BE SAVED ON UNIT 1020 AT END OF TIME STEP   35, STRESS PERIOD    2

end timestep


start timestep kper="2" kstp="36" mode="normal"

 UBDSV1 SAVING           STO-SS ON UNIT   1019 AT TIME STEP     36, STRESS PERIOD      2
 UBDSV1 SAVING           STO-SY ON UNIT   1019 AT TIME STEP     36, STRESS PERIOD      2
 UBDSV1 SAVING     FLOW-JA-FACE ON UNIT   1019 AT TIME STEP     36, STRESS PERIOD      2
 UBDSV06 SAVING              GHB IN MODEL EXPERIMENTAL     PACKAGE EXPERIMENTAL    CONNECTED TO MODEL EXPERIMENTAL     PACKAGE GHB              ON UNIT   1019 AT TIME STEP     36, STRESS PERIOD      2
 UBDSV06 SAVING              RCH IN MODEL EXPERIMENTAL     PACKAGE EXPERIMENTAL    CONNECTED TO MODEL EXPERIMENTAL     PACKAGE RCH              ON UNIT   1019 AT TIME STEP     36, STRESS PERIOD      2
 UBDSV06 SAVING              SFR IN MODEL EXPERIMENTAL     PACKAGE EXPERIMENTAL    CONNECTED TO MODEL EXPERIMENTAL     PACKAGE SFR              ON UNIT   1019 AT TIME STEP     36, STRESS PERIOD      2
 UBDSV06 SAVING     FLOW-JA-FACE IN MODEL EXPERIMENTAL     PACKAGE SFR             CONNECTED TO MODEL EXPERIMENTAL     PACKAGE SFR              ON UNIT   1015 AT TIME STEP     36, STRESS PERIOD      2
 UBDSV06 SAVING              GWF IN MODEL EXPERIMENTAL     PACKAGE SFR             CONNECTED TO MODEL EXPERIMENTAL     PACKAGE EXPERIMENTAL     ON UNIT   1015 AT TIME STEP     36, STRESS PERIOD      2
 UBDSV06 SAVING         RAINFALL IN MODEL EXPERIMENTAL     PACKAGE SFR             CONNECTED TO MODEL EXPERIMENTAL     PACKAGE SFR              ON UNIT   1015 AT TIME STEP     36, STRESS PERIOD      2
 UBDSV06 SAVING      EVAPORATION IN MODEL EXPERIMENTAL     PACKAGE SFR             CONNECTED TO MODEL EXPERIMENTAL     PACKAGE SFR              ON UNIT   1015 AT TIME STEP     36, STRESS PERIOD      2
 UBDSV06 SAVING           RUNOFF IN MODEL EXPERIMENTAL     PACKAGE SFR             CONNECTED TO MODEL EXPERIMENTAL     PACKAGE SFR              ON UNIT   1015 AT TIME STEP     36, STRESS PERIOD      2
 UBDSV06 SAVING       EXT-INFLOW IN MODEL EXPERIMENTAL     PACKAGE SFR             CONNECTED TO MODEL EXPERIMENTAL     PACKAGE SFR              ON UNIT   1015 AT TIME STEP     36, STRESS PERIOD      2
 UBDSV06 SAVING      EXT-OUTFLOW IN MODEL EXPERIMENTAL     PACKAGE SFR             CONNECTED TO MODEL EXPERIMENTAL     PACKAGE SFR              ON UNIT   1015 AT TIME STEP     36, STRESS PERIOD      2
 UBDSV06 SAVING          STORAGE IN MODEL EXPERIMENTAL     PACKAGE SFR             CONNECTED TO MODEL EXPERIMENTAL     PACKAGE SFR              ON UNIT   1015 AT TIME STEP     36, STRESS PERIOD      2

 HEAD WILL BE SAVED ON UNIT 1020 AT END OF TIME STEP   36, STRESS PERIOD    2

end timestep


start timestep kper="2" kstp="37" mode="normal"

 UBDSV1 SAVING           STO-SS ON UNIT   1019 AT TIME STEP     37, STRESS PERIOD      2
 UBDSV1 SAVING           STO-SY ON UNIT   1019 AT TIME STEP     37, STRESS PERIOD      2
 UBDSV1 SAVING     FLOW-JA-FACE ON UNIT   1019 AT TIME STEP     37, STRESS PERIOD      2
 UBDSV06 SAVING              GHB IN MODEL EXPERIMENTAL     PACKAGE EXPERIMENTAL    CONNECTED TO MODEL EXPERIMENTAL     PACKAGE GHB              ON UNIT   1019 AT TIME STEP     37, STRESS PERIOD      2
 UBDSV06 SAVING              RCH IN MODEL EXPERIMENTAL     PACKAGE EXPERIMENTAL    CONNECTED TO MODEL EXPERIMENTAL     PACKAGE RCH              ON UNIT   1019 AT TIME STEP     37, STRESS PERIOD      2
 UBDSV06 SAVING              SFR IN MODEL EXPERIMENTAL     PACKAGE EXPERIMENTAL    CONNECTED TO MODEL EXPERIMENTAL     PACKAGE SFR              ON UNIT   1019 AT TIME STEP     37, STRESS PERIOD      2
 UBDSV06 SAVING     FLOW-JA-FACE IN MODEL EXPERIMENTAL     PACKAGE SFR             CONNECTED TO MODEL EXPERIMENTAL     PACKAGE SFR              ON UNIT   1015 AT TIME STEP     37, STRESS PERIOD      2
 UBDSV06 SAVING              GWF IN MODEL EXPERIMENTAL     PACKAGE SFR             CONNECTED TO MODEL EXPERIMENTAL     PACKAGE EXPERIMENTAL     ON UNIT   1015 AT TIME STEP     37, STRESS PERIOD      2
 UBDSV06 SAVING         RAINFALL IN MODEL EXPERIMENTAL     PACKAGE SFR             CONNECTED TO MODEL EXPERIMENTAL     PACKAGE SFR              ON UNIT   1015 AT TIME STEP     37, STRESS PERIOD      2
 UBDSV06 SAVING      EVAPORATION IN MODEL EXPERIMENTAL     PACKAGE SFR             CONNECTED TO MODEL EXPERIMENTAL     PACKAGE SFR              ON UNIT   1015 AT TIME STEP     37, STRESS PERIOD      2
 UBDSV06 SAVING           RUNOFF IN MODEL EXPERIMENTAL     PACKAGE SFR             CONNECTED TO MODEL EXPERIMENTAL     PACKAGE SFR              ON UNIT   1015 AT TIME STEP     37, STRESS PERIOD      2
 UBDSV06 SAVING       EXT-INFLOW IN MODEL EXPERIMENTAL     PACKAGE SFR             CONNECTED TO MODEL EXPERIMENTAL     PACKAGE SFR              ON UNIT   1015 AT TIME STEP     37, STRESS PERIOD      2
 UBDSV06 SAVING      EXT-OUTFLOW IN MODEL EXPERIMENTAL     PACKAGE SFR             CONNECTED TO MODEL EXPERIMENTAL     PACKAGE SFR              ON UNIT   1015 AT TIME STEP     37, STRESS PERIOD      2
 UBDSV06 SAVING          STORAGE IN MODEL EXPERIMENTAL     PACKAGE SFR             CONNECTED TO MODEL EXPERIMENTAL     PACKAGE SFR              ON UNIT   1015 AT TIME STEP     37, STRESS PERIOD      2

 HEAD WILL BE SAVED ON UNIT 1020 AT END OF TIME STEP   37, STRESS PERIOD    2

end timestep


start timestep kper="2" kstp="38" mode="normal"

 UBDSV1 SAVING           STO-SS ON UNIT   1019 AT TIME STEP     38, STRESS PERIOD      2
 UBDSV1 SAVING           STO-SY ON UNIT   1019 AT TIME STEP     38, STRESS PERIOD      2
 UBDSV1 SAVING     FLOW-JA-FACE ON UNIT   1019 AT TIME STEP     38, STRESS PERIOD      2
 UBDSV06 SAVING              GHB IN MODEL EXPERIMENTAL     PACKAGE EXPERIMENTAL    CONNECTED TO MODEL EXPERIMENTAL     PACKAGE GHB              ON UNIT   1019 AT TIME STEP     38, STRESS PERIOD      2
 UBDSV06 SAVING              RCH IN MODEL EXPERIMENTAL     PACKAGE EXPERIMENTAL    CONNECTED TO MODEL EXPERIMENTAL     PACKAGE RCH              ON UNIT   1019 AT TIME STEP     38, STRESS PERIOD      2
 UBDSV06 SAVING              SFR IN MODEL EXPERIMENTAL     PACKAGE EXPERIMENTAL    CONNECTED TO MODEL EXPERIMENTAL     PACKAGE SFR              ON UNIT   1019 AT TIME STEP     38, STRESS PERIOD      2
 UBDSV06 SAVING     FLOW-JA-FACE IN MODEL EXPERIMENTAL     PACKAGE SFR             CONNECTED TO MODEL EXPERIMENTAL     PACKAGE SFR              ON UNIT   1015 AT TIME STEP     38, STRESS PERIOD      2
 UBDSV06 SAVING              GWF IN MODEL EXPERIMENTAL     PACKAGE SFR             CONNECTED TO MODEL EXPERIMENTAL     PACKAGE EXPERIMENTAL     ON UNIT   1015 AT TIME STEP     38, STRESS PERIOD      2
 UBDSV06 SAVING         RAINFALL IN MODEL EXPERIMENTAL     PACKAGE SFR             CONNECTED TO MODEL EXPERIMENTAL     PACKAGE SFR              ON UNIT   1015 AT TIME STEP     38, STRESS PERIOD      2
 UBDSV06 SAVING      EVAPORATION IN MODEL EXPERIMENTAL     PACKAGE SFR             CONNECTED TO MODEL EXPERIMENTAL     PACKAGE SFR              ON UNIT   1015 AT TIME STEP     38, STRESS PERIOD      2
 UBDSV06 SAVING           RUNOFF IN MODEL EXPERIMENTAL     PACKAGE SFR             CONNECTED TO MODEL EXPERIMENTAL     PACKAGE SFR              ON UNIT   1015 AT TIME STEP     38, STRESS PERIOD      2
 UBDSV06 SAVING       EXT-INFLOW IN MODEL EXPERIMENTAL     PACKAGE SFR             CONNECTED TO MODEL EXPERIMENTAL     PACKAGE SFR              ON UNIT   1015 AT TIME STEP     38, STRESS PERIOD      2
 UBDSV06 SAVING      EXT-OUTFLOW IN MODEL EXPERIMENTAL     PACKAGE SFR             CONNECTED TO MODEL EXPERIMENTAL     PACKAGE SFR              ON UNIT   1015 AT TIME STEP     38, STRESS PERIOD      2
 UBDSV06 SAVING          STORAGE IN MODEL EXPERIMENTAL     PACKAGE SFR             CONNECTED TO MODEL EXPERIMENTAL     PACKAGE SFR              ON UNIT   1015 AT TIME STEP     38, STRESS PERIOD      2

 HEAD WILL BE SAVED ON UNIT 1020 AT END OF TIME STEP   38, STRESS PERIOD    2

end timestep


start timestep kper="2" kstp="39" mode="normal"

 UBDSV1 SAVING           STO-SS ON UNIT   1019 AT TIME STEP     39, STRESS PERIOD      2
 UBDSV1 SAVING           STO-SY ON UNIT   1019 AT TIME STEP     39, STRESS PERIOD      2
 UBDSV1 SAVING     FLOW-JA-FACE ON UNIT   1019 AT TIME STEP     39, STRESS PERIOD      2
 UBDSV06 SAVING              GHB IN MODEL EXPERIMENTAL     PACKAGE EXPERIMENTAL    CONNECTED TO MODEL EXPERIMENTAL     PACKAGE GHB              ON UNIT   1019 AT TIME STEP     39, STRESS PERIOD      2
 UBDSV06 SAVING              RCH IN MODEL EXPERIMENTAL     PACKAGE EXPERIMENTAL    CONNECTED TO MODEL EXPERIMENTAL     PACKAGE RCH              ON UNIT   1019 AT TIME STEP     39, STRESS PERIOD      2
 UBDSV06 SAVING              SFR IN MODEL EXPERIMENTAL     PACKAGE EXPERIMENTAL    CONNECTED TO MODEL EXPERIMENTAL     PACKAGE SFR              ON UNIT   1019 AT TIME STEP     39, STRESS PERIOD      2
 UBDSV06 SAVING     FLOW-JA-FACE IN MODEL EXPERIMENTAL     PACKAGE SFR             CONNECTED TO MODEL EXPERIMENTAL     PACKAGE SFR              ON UNIT   1015 AT TIME STEP     39, STRESS PERIOD      2
 UBDSV06 SAVING              GWF IN MODEL EXPERIMENTAL     PACKAGE SFR             CONNECTED TO MODEL EXPERIMENTAL     PACKAGE EXPERIMENTAL     ON UNIT   1015 AT TIME STEP     39, STRESS PERIOD      2
 UBDSV06 SAVING         RAINFALL IN MODEL EXPERIMENTAL     PACKAGE SFR             CONNECTED TO MODEL EXPERIMENTAL     PACKAGE SFR              ON UNIT   1015 AT TIME STEP     39, STRESS PERIOD      2
 UBDSV06 SAVING      EVAPORATION IN MODEL EXPERIMENTAL     PACKAGE SFR             CONNECTED TO MODEL EXPERIMENTAL     PACKAGE SFR              ON UNIT   1015 AT TIME STEP     39, STRESS PERIOD      2
 UBDSV06 SAVING           RUNOFF IN MODEL EXPERIMENTAL     PACKAGE SFR             CONNECTED TO MODEL EXPERIMENTAL     PACKAGE SFR              ON UNIT   1015 AT TIME STEP     39, STRESS PERIOD      2
 UBDSV06 SAVING       EXT-INFLOW IN MODEL EXPERIMENTAL     PACKAGE SFR             CONNECTED TO MODEL EXPERIMENTAL     PACKAGE SFR              ON UNIT   1015 AT TIME STEP     39, STRESS PERIOD      2
 UBDSV06 SAVING      EXT-OUTFLOW IN MODEL EXPERIMENTAL     PACKAGE SFR             CONNECTED TO MODEL EXPERIMENTAL     PACKAGE SFR              ON UNIT   1015 AT TIME STEP     39, STRESS PERIOD      2
 UBDSV06 SAVING          STORAGE IN MODEL EXPERIMENTAL     PACKAGE SFR             CONNECTED TO MODEL EXPERIMENTAL     PACKAGE SFR              ON UNIT   1015 AT TIME STEP     39, STRESS PERIOD      2

 HEAD WILL BE SAVED ON UNIT 1020 AT END OF TIME STEP   39, STRESS PERIOD    2

end timestep


start timestep kper="2" kstp="40" mode="normal"

 UBDSV1 SAVING           STO-SS ON UNIT   1019 AT TIME STEP     40, STRESS PERIOD      2
 UBDSV1 SAVING           STO-SY ON UNIT   1019 AT TIME STEP     40, STRESS PERIOD      2
 UBDSV1 SAVING     FLOW-JA-FACE ON UNIT   1019 AT TIME STEP     40, STRESS PERIOD      2
 UBDSV06 SAVING              GHB IN MODEL EXPERIMENTAL     PACKAGE EXPERIMENTAL    CONNECTED TO MODEL EXPERIMENTAL     PACKAGE GHB              ON UNIT   1019 AT TIME STEP     40, STRESS PERIOD      2
 UBDSV06 SAVING              RCH IN MODEL EXPERIMENTAL     PACKAGE EXPERIMENTAL    CONNECTED TO MODEL EXPERIMENTAL     PACKAGE RCH              ON UNIT   1019 AT TIME STEP     40, STRESS PERIOD      2
 UBDSV06 SAVING              SFR IN MODEL EXPERIMENTAL     PACKAGE EXPERIMENTAL    CONNECTED TO MODEL EXPERIMENTAL     PACKAGE SFR              ON UNIT   1019 AT TIME STEP     40, STRESS PERIOD      2
 UBDSV06 SAVING     FLOW-JA-FACE IN MODEL EXPERIMENTAL     PACKAGE SFR             CONNECTED TO MODEL EXPERIMENTAL     PACKAGE SFR              ON UNIT   1015 AT TIME STEP     40, STRESS PERIOD      2
 UBDSV06 SAVING              GWF IN MODEL EXPERIMENTAL     PACKAGE SFR             CONNECTED TO MODEL EXPERIMENTAL     PACKAGE EXPERIMENTAL     ON UNIT   1015 AT TIME STEP     40, STRESS PERIOD      2
 UBDSV06 SAVING         RAINFALL IN MODEL EXPERIMENTAL     PACKAGE SFR             CONNECTED TO MODEL EXPERIMENTAL     PACKAGE SFR              ON UNIT   1015 AT TIME STEP     40, STRESS PERIOD      2
 UBDSV06 SAVING      EVAPORATION IN MODEL EXPERIMENTAL     PACKAGE SFR             CONNECTED TO MODEL EXPERIMENTAL     PACKAGE SFR              ON UNIT   1015 AT TIME STEP     40, STRESS PERIOD      2
 UBDSV06 SAVING           RUNOFF IN MODEL EXPERIMENTAL     PACKAGE SFR             CONNECTED TO MODEL EXPERIMENTAL     PACKAGE SFR              ON UNIT   1015 AT TIME STEP     40, STRESS PERIOD      2
 UBDSV06 SAVING       EXT-INFLOW IN MODEL EXPERIMENTAL     PACKAGE SFR             CONNECTED TO MODEL EXPERIMENTAL     PACKAGE SFR              ON UNIT   1015 AT TIME STEP     40, STRESS PERIOD      2
 UBDSV06 SAVING      EXT-OUTFLOW IN MODEL EXPERIMENTAL     PACKAGE SFR             CONNECTED TO MODEL EXPERIMENTAL     PACKAGE SFR              ON UNIT   1015 AT TIME STEP     40, STRESS PERIOD      2
 UBDSV06 SAVING          STORAGE IN MODEL EXPERIMENTAL     PACKAGE SFR             CONNECTED TO MODEL EXPERIMENTAL     PACKAGE SFR              ON UNIT   1015 AT TIME STEP     40, STRESS PERIOD      2

 HEAD WILL BE SAVED ON UNIT 1020 AT END OF TIME STEP   40, STRESS PERIOD    2

end timestep


start timestep kper="2" kstp="41" mode="normal"

 UBDSV1 SAVING           STO-SS ON UNIT   1019 AT TIME STEP     41, STRESS PERIOD      2
 UBDSV1 SAVING           STO-SY ON UNIT   1019 AT TIME STEP     41, STRESS PERIOD      2
 UBDSV1 SAVING     FLOW-JA-FACE ON UNIT   1019 AT TIME STEP     41, STRESS PERIOD      2
 UBDSV06 SAVING              GHB IN MODEL EXPERIMENTAL     PACKAGE EXPERIMENTAL    CONNECTED TO MODEL EXPERIMENTAL     PACKAGE GHB              ON UNIT   1019 AT TIME STEP     41, STRESS PERIOD      2
 UBDSV06 SAVING              RCH IN MODEL EXPERIMENTAL     PACKAGE EXPERIMENTAL    CONNECTED TO MODEL EXPERIMENTAL     PACKAGE RCH              ON UNIT   1019 AT TIME STEP     41, STRESS PERIOD      2
 UBDSV06 SAVING              SFR IN MODEL EXPERIMENTAL     PACKAGE EXPERIMENTAL    CONNECTED TO MODEL EXPERIMENTAL     PACKAGE SFR              ON UNIT   1019 AT TIME STEP     41, STRESS PERIOD      2
 UBDSV06 SAVING     FLOW-JA-FACE IN MODEL EXPERIMENTAL     PACKAGE SFR             CONNECTED TO MODEL EXPERIMENTAL     PACKAGE SFR              ON UNIT   1015 AT TIME STEP     41, STRESS PERIOD      2
 UBDSV06 SAVING              GWF IN MODEL EXPERIMENTAL     PACKAGE SFR             CONNECTED TO MODEL EXPERIMENTAL     PACKAGE EXPERIMENTAL     ON UNIT   1015 AT TIME STEP     41, STRESS PERIOD      2
 UBDSV06 SAVING         RAINFALL IN MODEL EXPERIMENTAL     PACKAGE SFR             CONNECTED TO MODEL EXPERIMENTAL     PACKAGE SFR              ON UNIT   1015 AT TIME STEP     41, STRESS PERIOD      2
 UBDSV06 SAVING      EVAPORATION IN MODEL EXPERIMENTAL     PACKAGE SFR             CONNECTED TO MODEL EXPERIMENTAL     PACKAGE SFR              ON UNIT   1015 AT TIME STEP     41, STRESS PERIOD      2
 UBDSV06 SAVING           RUNOFF IN MODEL EXPERIMENTAL     PACKAGE SFR             CONNECTED TO MODEL EXPERIMENTAL     PACKAGE SFR              ON UNIT   1015 AT TIME STEP     41, STRESS PERIOD      2
 UBDSV06 SAVING       EXT-INFLOW IN MODEL EXPERIMENTAL     PACKAGE SFR             CONNECTED TO MODEL EXPERIMENTAL     PACKAGE SFR              ON UNIT   1015 AT TIME STEP     41, STRESS PERIOD      2
 UBDSV06 SAVING      EXT-OUTFLOW IN MODEL EXPERIMENTAL     PACKAGE SFR             CONNECTED TO MODEL EXPERIMENTAL     PACKAGE SFR              ON UNIT   1015 AT TIME STEP     41, STRESS PERIOD      2
 UBDSV06 SAVING          STORAGE IN MODEL EXPERIMENTAL     PACKAGE SFR             CONNECTED TO MODEL EXPERIMENTAL     PACKAGE SFR              ON UNIT   1015 AT TIME STEP     41, STRESS PERIOD      2

 HEAD WILL BE SAVED ON UNIT 1020 AT END OF TIME STEP   41, STRESS PERIOD    2

end timestep


start timestep kper="2" kstp="42" mode="normal"

 UBDSV1 SAVING           STO-SS ON UNIT   1019 AT TIME STEP     42, STRESS PERIOD      2
 UBDSV1 SAVING           STO-SY ON UNIT   1019 AT TIME STEP     42, STRESS PERIOD      2
 UBDSV1 SAVING     FLOW-JA-FACE ON UNIT   1019 AT TIME STEP     42, STRESS PERIOD      2
 UBDSV06 SAVING              GHB IN MODEL EXPERIMENTAL     PACKAGE EXPERIMENTAL    CONNECTED TO MODEL EXPERIMENTAL     PACKAGE GHB              ON UNIT   1019 AT TIME STEP     42, STRESS PERIOD      2
 UBDSV06 SAVING              RCH IN MODEL EXPERIMENTAL     PACKAGE EXPERIMENTAL    CONNECTED TO MODEL EXPERIMENTAL     PACKAGE RCH              ON UNIT   1019 AT TIME STEP     42, STRESS PERIOD      2
 UBDSV06 SAVING              SFR IN MODEL EXPERIMENTAL     PACKAGE EXPERIMENTAL    CONNECTED TO MODEL EXPERIMENTAL     PACKAGE SFR              ON UNIT   1019 AT TIME STEP     42, STRESS PERIOD      2
 UBDSV06 SAVING     FLOW-JA-FACE IN MODEL EXPERIMENTAL     PACKAGE SFR             CONNECTED TO MODEL EXPERIMENTAL     PACKAGE SFR              ON UNIT   1015 AT TIME STEP     42, STRESS PERIOD      2
 UBDSV06 SAVING              GWF IN MODEL EXPERIMENTAL     PACKAGE SFR             CONNECTED TO MODEL EXPERIMENTAL     PACKAGE EXPERIMENTAL     ON UNIT   1015 AT TIME STEP     42, STRESS PERIOD      2
 UBDSV06 SAVING         RAINFALL IN MODEL EXPERIMENTAL     PACKAGE SFR             CONNECTED TO MODEL EXPERIMENTAL     PACKAGE SFR              ON UNIT   1015 AT TIME STEP     42, STRESS PERIOD      2
 UBDSV06 SAVING      EVAPORATION IN MODEL EXPERIMENTAL     PACKAGE SFR             CONNECTED TO MODEL EXPERIMENTAL     PACKAGE SFR              ON UNIT   1015 AT TIME STEP     42, STRESS PERIOD      2
 UBDSV06 SAVING           RUNOFF IN MODEL EXPERIMENTAL     PACKAGE SFR             CONNECTED TO MODEL EXPERIMENTAL     PACKAGE SFR              ON UNIT   1015 AT TIME STEP     42, STRESS PERIOD      2
 UBDSV06 SAVING       EXT-INFLOW IN MODEL EXPERIMENTAL     PACKAGE SFR             CONNECTED TO MODEL EXPERIMENTAL     PACKAGE SFR              ON UNIT   1015 AT TIME STEP     42, STRESS PERIOD      2
 UBDSV06 SAVING      EXT-OUTFLOW IN MODEL EXPERIMENTAL     PACKAGE SFR             CONNECTED TO MODEL EXPERIMENTAL     PACKAGE SFR              ON UNIT   1015 AT TIME STEP     42, STRESS PERIOD      2
 UBDSV06 SAVING          STORAGE IN MODEL EXPERIMENTAL     PACKAGE SFR             CONNECTED TO MODEL EXPERIMENTAL     PACKAGE SFR              ON UNIT   1015 AT TIME STEP     42, STRESS PERIOD      2

 HEAD WILL BE SAVED ON UNIT 1020 AT END OF TIME STEP   42, STRESS PERIOD    2

end timestep


start timestep kper="2" kstp="43" mode="normal"

 UBDSV1 SAVING           STO-SS ON UNIT   1019 AT TIME STEP     43, STRESS PERIOD      2
 UBDSV1 SAVING           STO-SY ON UNIT   1019 AT TIME STEP     43, STRESS PERIOD      2
 UBDSV1 SAVING     FLOW-JA-FACE ON UNIT   1019 AT TIME STEP     43, STRESS PERIOD      2
 UBDSV06 SAVING              GHB IN MODEL EXPERIMENTAL     PACKAGE EXPERIMENTAL    CONNECTED TO MODEL EXPERIMENTAL     PACKAGE GHB              ON UNIT   1019 AT TIME STEP     43, STRESS PERIOD      2
 UBDSV06 SAVING              RCH IN MODEL EXPERIMENTAL     PACKAGE EXPERIMENTAL    CONNECTED TO MODEL EXPERIMENTAL     PACKAGE RCH              ON UNIT   1019 AT TIME STEP     43, STRESS PERIOD      2
 UBDSV06 SAVING              SFR IN MODEL EXPERIMENTAL     PACKAGE EXPERIMENTAL    CONNECTED TO MODEL EXPERIMENTAL     PACKAGE SFR              ON UNIT   1019 AT TIME STEP     43, STRESS PERIOD      2
 UBDSV06 SAVING     FLOW-JA-FACE IN MODEL EXPERIMENTAL     PACKAGE SFR             CONNECTED TO MODEL EXPERIMENTAL     PACKAGE SFR              ON UNIT   1015 AT TIME STEP     43, STRESS PERIOD      2
 UBDSV06 SAVING              GWF IN MODEL EXPERIMENTAL     PACKAGE SFR             CONNECTED TO MODEL EXPERIMENTAL     PACKAGE EXPERIMENTAL     ON UNIT   1015 AT TIME STEP     43, STRESS PERIOD      2
 UBDSV06 SAVING         RAINFALL IN MODEL EXPERIMENTAL     PACKAGE SFR             CONNECTED TO MODEL EXPERIMENTAL     PACKAGE SFR              ON UNIT   1015 AT TIME STEP     43, STRESS PERIOD      2
 UBDSV06 SAVING      EVAPORATION IN MODEL EXPERIMENTAL     PACKAGE SFR             CONNECTED TO MODEL EXPERIMENTAL     PACKAGE SFR              ON UNIT   1015 AT TIME STEP     43, STRESS PERIOD      2
 UBDSV06 SAVING           RUNOFF IN MODEL EXPERIMENTAL     PACKAGE SFR             CONNECTED TO MODEL EXPERIMENTAL     PACKAGE SFR              ON UNIT   1015 AT TIME STEP     43, STRESS PERIOD      2
 UBDSV06 SAVING       EXT-INFLOW IN MODEL EXPERIMENTAL     PACKAGE SFR             CONNECTED TO MODEL EXPERIMENTAL     PACKAGE SFR              ON UNIT   1015 AT TIME STEP     43, STRESS PERIOD      2
 UBDSV06 SAVING      EXT-OUTFLOW IN MODEL EXPERIMENTAL     PACKAGE SFR             CONNECTED TO MODEL EXPERIMENTAL     PACKAGE SFR              ON UNIT   1015 AT TIME STEP     43, STRESS PERIOD      2
 UBDSV06 SAVING          STORAGE IN MODEL EXPERIMENTAL     PACKAGE SFR             CONNECTED TO MODEL EXPERIMENTAL     PACKAGE SFR              ON UNIT   1015 AT TIME STEP     43, STRESS PERIOD      2

 HEAD WILL BE SAVED ON UNIT 1020 AT END OF TIME STEP   43, STRESS PERIOD    2

end timestep


start timestep kper="2" kstp="44" mode="normal"

 UBDSV1 SAVING           STO-SS ON UNIT   1019 AT TIME STEP     44, STRESS PERIOD      2
 UBDSV1 SAVING           STO-SY ON UNIT   1019 AT TIME STEP     44, STRESS PERIOD      2
 UBDSV1 SAVING     FLOW-JA-FACE ON UNIT   1019 AT TIME STEP     44, STRESS PERIOD      2
 UBDSV06 SAVING              GHB IN MODEL EXPERIMENTAL     PACKAGE EXPERIMENTAL    CONNECTED TO MODEL EXPERIMENTAL     PACKAGE GHB              ON UNIT   1019 AT TIME STEP     44, STRESS PERIOD      2
 UBDSV06 SAVING              RCH IN MODEL EXPERIMENTAL     PACKAGE EXPERIMENTAL    CONNECTED TO MODEL EXPERIMENTAL     PACKAGE RCH              ON UNIT   1019 AT TIME STEP     44, STRESS PERIOD      2
 UBDSV06 SAVING              SFR IN MODEL EXPERIMENTAL     PACKAGE EXPERIMENTAL    CONNECTED TO MODEL EXPERIMENTAL     PACKAGE SFR              ON UNIT   1019 AT TIME STEP     44, STRESS PERIOD      2
 UBDSV06 SAVING     FLOW-JA-FACE IN MODEL EXPERIMENTAL     PACKAGE SFR             CONNECTED TO MODEL EXPERIMENTAL     PACKAGE SFR              ON UNIT   1015 AT TIME STEP     44, STRESS PERIOD      2
 UBDSV06 SAVING              GWF IN MODEL EXPERIMENTAL     PACKAGE SFR             CONNECTED TO MODEL EXPERIMENTAL     PACKAGE EXPERIMENTAL     ON UNIT   1015 AT TIME STEP     44, STRESS PERIOD      2
 UBDSV06 SAVING         RAINFALL IN MODEL EXPERIMENTAL     PACKAGE SFR             CONNECTED TO MODEL EXPERIMENTAL     PACKAGE SFR              ON UNIT   1015 AT TIME STEP     44, STRESS PERIOD      2
 UBDSV06 SAVING      EVAPORATION IN MODEL EXPERIMENTAL     PACKAGE SFR             CONNECTED TO MODEL EXPERIMENTAL     PACKAGE SFR              ON UNIT   1015 AT TIME STEP     44, STRESS PERIOD      2
 UBDSV06 SAVING           RUNOFF IN MODEL EXPERIMENTAL     PACKAGE SFR             CONNECTED TO MODEL EXPERIMENTAL     PACKAGE SFR              ON UNIT   1015 AT TIME STEP     44, STRESS PERIOD      2
 UBDSV06 SAVING       EXT-INFLOW IN MODEL EXPERIMENTAL     PACKAGE SFR             CONNECTED TO MODEL EXPERIMENTAL     PACKAGE SFR              ON UNIT   1015 AT TIME STEP     44, STRESS PERIOD      2
 UBDSV06 SAVING      EXT-OUTFLOW IN MODEL EXPERIMENTAL     PACKAGE SFR             CONNECTED TO MODEL EXPERIMENTAL     PACKAGE SFR              ON UNIT   1015 AT TIME STEP     44, STRESS PERIOD      2
 UBDSV06 SAVING          STORAGE IN MODEL EXPERIMENTAL     PACKAGE SFR             CONNECTED TO MODEL EXPERIMENTAL     PACKAGE SFR              ON UNIT   1015 AT TIME STEP     44, STRESS PERIOD      2

 HEAD WILL BE SAVED ON UNIT 1020 AT END OF TIME STEP   44, STRESS PERIOD    2

end timestep


start timestep kper="2" kstp="45" mode="normal"

 UBDSV1 SAVING           STO-SS ON UNIT   1019 AT TIME STEP     45, STRESS PERIOD      2
 UBDSV1 SAVING           STO-SY ON UNIT   1019 AT TIME STEP     45, STRESS PERIOD      2
 UBDSV1 SAVING     FLOW-JA-FACE ON UNIT   1019 AT TIME STEP     45, STRESS PERIOD      2
 UBDSV06 SAVING              GHB IN MODEL EXPERIMENTAL     PACKAGE EXPERIMENTAL    CONNECTED TO MODEL EXPERIMENTAL     PACKAGE GHB              ON UNIT   1019 AT TIME STEP     45, STRESS PERIOD      2
 UBDSV06 SAVING              RCH IN MODEL EXPERIMENTAL     PACKAGE EXPERIMENTAL    CONNECTED TO MODEL EXPERIMENTAL     PACKAGE RCH              ON UNIT   1019 AT TIME STEP     45, STRESS PERIOD      2
 UBDSV06 SAVING              SFR IN MODEL EXPERIMENTAL     PACKAGE EXPERIMENTAL    CONNECTED TO MODEL EXPERIMENTAL     PACKAGE SFR              ON UNIT   1019 AT TIME STEP     45, STRESS PERIOD      2
 UBDSV06 SAVING     FLOW-JA-FACE IN MODEL EXPERIMENTAL     PACKAGE SFR             CONNECTED TO MODEL EXPERIMENTAL     PACKAGE SFR              ON UNIT   1015 AT TIME STEP     45, STRESS PERIOD      2
 UBDSV06 SAVING              GWF IN MODEL EXPERIMENTAL     PACKAGE SFR             CONNECTED TO MODEL EXPERIMENTAL     PACKAGE EXPERIMENTAL     ON UNIT   1015 AT TIME STEP     45, STRESS PERIOD      2
 UBDSV06 SAVING         RAINFALL IN MODEL EXPERIMENTAL     PACKAGE SFR             CONNECTED TO MODEL EXPERIMENTAL     PACKAGE SFR              ON UNIT   1015 AT TIME STEP     45, STRESS PERIOD      2
 UBDSV06 SAVING      EVAPORATION IN MODEL EXPERIMENTAL     PACKAGE SFR             CONNECTED TO MODEL EXPERIMENTAL     PACKAGE SFR              ON UNIT   1015 AT TIME STEP     45, STRESS PERIOD      2
 UBDSV06 SAVING           RUNOFF IN MODEL EXPERIMENTAL     PACKAGE SFR             CONNECTED TO MODEL EXPERIMENTAL     PACKAGE SFR              ON UNIT   1015 AT TIME STEP     45, STRESS PERIOD      2
 UBDSV06 SAVING       EXT-INFLOW IN MODEL EXPERIMENTAL     PACKAGE SFR             CONNECTED TO MODEL EXPERIMENTAL     PACKAGE SFR              ON UNIT   1015 AT TIME STEP     45, STRESS PERIOD      2
 UBDSV06 SAVING      EXT-OUTFLOW IN MODEL EXPERIMENTAL     PACKAGE SFR             CONNECTED TO MODEL EXPERIMENTAL     PACKAGE SFR              ON UNIT   1015 AT TIME STEP     45, STRESS PERIOD      2
 UBDSV06 SAVING          STORAGE IN MODEL EXPERIMENTAL     PACKAGE SFR             CONNECTED TO MODEL EXPERIMENTAL     PACKAGE SFR              ON UNIT   1015 AT TIME STEP     45, STRESS PERIOD      2

 HEAD WILL BE SAVED ON UNIT 1020 AT END OF TIME STEP   45, STRESS PERIOD    2

end timestep


start timestep kper="2" kstp="46" mode="normal"

 UBDSV1 SAVING           STO-SS ON UNIT   1019 AT TIME STEP     46, STRESS PERIOD      2
 UBDSV1 SAVING           STO-SY ON UNIT   1019 AT TIME STEP     46, STRESS PERIOD      2
 UBDSV1 SAVING     FLOW-JA-FACE ON UNIT   1019 AT TIME STEP     46, STRESS PERIOD      2
 UBDSV06 SAVING              GHB IN MODEL EXPERIMENTAL     PACKAGE EXPERIMENTAL    CONNECTED TO MODEL EXPERIMENTAL     PACKAGE GHB              ON UNIT   1019 AT TIME STEP     46, STRESS PERIOD      2
 UBDSV06 SAVING              RCH IN MODEL EXPERIMENTAL     PACKAGE EXPERIMENTAL    CONNECTED TO MODEL EXPERIMENTAL     PACKAGE RCH              ON UNIT   1019 AT TIME STEP     46, STRESS PERIOD      2
 UBDSV06 SAVING              SFR IN MODEL EXPERIMENTAL     PACKAGE EXPERIMENTAL    CONNECTED TO MODEL EXPERIMENTAL     PACKAGE SFR              ON UNIT   1019 AT TIME STEP     46, STRESS PERIOD      2
 UBDSV06 SAVING     FLOW-JA-FACE IN MODEL EXPERIMENTAL     PACKAGE SFR             CONNECTED TO MODEL EXPERIMENTAL     PACKAGE SFR              ON UNIT   1015 AT TIME STEP     46, STRESS PERIOD      2
 UBDSV06 SAVING              GWF IN MODEL EXPERIMENTAL     PACKAGE SFR             CONNECTED TO MODEL EXPERIMENTAL     PACKAGE EXPERIMENTAL     ON UNIT   1015 AT TIME STEP     46, STRESS PERIOD      2
 UBDSV06 SAVING         RAINFALL IN MODEL EXPERIMENTAL     PACKAGE SFR             CONNECTED TO MODEL EXPERIMENTAL     PACKAGE SFR              ON UNIT   1015 AT TIME STEP     46, STRESS PERIOD      2
 UBDSV06 SAVING      EVAPORATION IN MODEL EXPERIMENTAL     PACKAGE SFR             CONNECTED TO MODEL EXPERIMENTAL     PACKAGE SFR              ON UNIT   1015 AT TIME STEP     46, STRESS PERIOD      2
 UBDSV06 SAVING           RUNOFF IN MODEL EXPERIMENTAL     PACKAGE SFR             CONNECTED TO MODEL EXPERIMENTAL     PACKAGE SFR              ON UNIT   1015 AT TIME STEP     46, STRESS PERIOD      2
 UBDSV06 SAVING       EXT-INFLOW IN MODEL EXPERIMENTAL     PACKAGE SFR             CONNECTED TO MODEL EXPERIMENTAL     PACKAGE SFR              ON UNIT   1015 AT TIME STEP     46, STRESS PERIOD      2
 UBDSV06 SAVING      EXT-OUTFLOW IN MODEL EXPERIMENTAL     PACKAGE SFR             CONNECTED TO MODEL EXPERIMENTAL     PACKAGE SFR              ON UNIT   1015 AT TIME STEP     46, STRESS PERIOD      2
 UBDSV06 SAVING          STORAGE IN MODEL EXPERIMENTAL     PACKAGE SFR             CONNECTED TO MODEL EXPERIMENTAL     PACKAGE SFR              ON UNIT   1015 AT TIME STEP     46, STRESS PERIOD      2

 HEAD WILL BE SAVED ON UNIT 1020 AT END OF TIME STEP   46, STRESS PERIOD    2

end timestep


start timestep kper="2" kstp="47" mode="normal"

 UBDSV1 SAVING           STO-SS ON UNIT   1019 AT TIME STEP     47, STRESS PERIOD      2
 UBDSV1 SAVING           STO-SY ON UNIT   1019 AT TIME STEP     47, STRESS PERIOD      2
 UBDSV1 SAVING     FLOW-JA-FACE ON UNIT   1019 AT TIME STEP     47, STRESS PERIOD      2
 UBDSV06 SAVING              GHB IN MODEL EXPERIMENTAL     PACKAGE EXPERIMENTAL    CONNECTED TO MODEL EXPERIMENTAL     PACKAGE GHB              ON UNIT   1019 AT TIME STEP     47, STRESS PERIOD      2
 UBDSV06 SAVING              RCH IN MODEL EXPERIMENTAL     PACKAGE EXPERIMENTAL    CONNECTED TO MODEL EXPERIMENTAL     PACKAGE RCH              ON UNIT   1019 AT TIME STEP     47, STRESS PERIOD      2
 UBDSV06 SAVING              SFR IN MODEL EXPERIMENTAL     PACKAGE EXPERIMENTAL    CONNECTED TO MODEL EXPERIMENTAL     PACKAGE SFR              ON UNIT   1019 AT TIME STEP     47, STRESS PERIOD      2
 UBDSV06 SAVING     FLOW-JA-FACE IN MODEL EXPERIMENTAL     PACKAGE SFR             CONNECTED TO MODEL EXPERIMENTAL     PACKAGE SFR              ON UNIT   1015 AT TIME STEP     47, STRESS PERIOD      2
 UBDSV06 SAVING              GWF IN MODEL EXPERIMENTAL     PACKAGE SFR             CONNECTED TO MODEL EXPERIMENTAL     PACKAGE EXPERIMENTAL     ON UNIT   1015 AT TIME STEP     47, STRESS PERIOD      2
 UBDSV06 SAVING         RAINFALL IN MODEL EXPERIMENTAL     PACKAGE SFR             CONNECTED TO MODEL EXPERIMENTAL     PACKAGE SFR              ON UNIT   1015 AT TIME STEP     47, STRESS PERIOD      2
 UBDSV06 SAVING      EVAPORATION IN MODEL EXPERIMENTAL     PACKAGE SFR             CONNECTED TO MODEL EXPERIMENTAL     PACKAGE SFR              ON UNIT   1015 AT TIME STEP     47, STRESS PERIOD      2
 UBDSV06 SAVING           RUNOFF IN MODEL EXPERIMENTAL     PACKAGE SFR             CONNECTED TO MODEL EXPERIMENTAL     PACKAGE SFR              ON UNIT   1015 AT TIME STEP     47, STRESS PERIOD      2
 UBDSV06 SAVING       EXT-INFLOW IN MODEL EXPERIMENTAL     PACKAGE SFR             CONNECTED TO MODEL EXPERIMENTAL     PACKAGE SFR              ON UNIT   1015 AT TIME STEP     47, STRESS PERIOD      2
 UBDSV06 SAVING      EXT-OUTFLOW IN MODEL EXPERIMENTAL     PACKAGE SFR             CONNECTED TO MODEL EXPERIMENTAL     PACKAGE SFR              ON UNIT   1015 AT TIME STEP     47, STRESS PERIOD      2
 UBDSV06 SAVING          STORAGE IN MODEL EXPERIMENTAL     PACKAGE SFR             CONNECTED TO MODEL EXPERIMENTAL     PACKAGE SFR              ON UNIT   1015 AT TIME STEP     47, STRESS PERIOD      2

 HEAD WILL BE SAVED ON UNIT 1020 AT END OF TIME STEP   47, STRESS PERIOD    2

end timestep


start timestep kper="2" kstp="48" mode="normal"

 UBDSV1 SAVING           STO-SS ON UNIT   1019 AT TIME STEP     48, STRESS PERIOD      2
 UBDSV1 SAVING           STO-SY ON UNIT   1019 AT TIME STEP     48, STRESS PERIOD      2
 UBDSV1 SAVING     FLOW-JA-FACE ON UNIT   1019 AT TIME STEP     48, STRESS PERIOD      2
 UBDSV06 SAVING              GHB IN MODEL EXPERIMENTAL     PACKAGE EXPERIMENTAL    CONNECTED TO MODEL EXPERIMENTAL     PACKAGE GHB              ON UNIT   1019 AT TIME STEP     48, STRESS PERIOD      2

 GHB PACKAGE (GHB) FLOW RATES   PERIOD      2   STEP       48
 --------------------------------------------------------------------
   NUMBER   CELLID                    RATE       NAME                
 --------------------------------------------------------------------
     32     (1,312)              -239.41377      ORANGE              
     33     (1,313)              -264.10209      ORANGE              
     34     (1,314)              -287.47462      ORANGE              
     35     (1,315)              -309.86002      ORANGE              
     36     (1,316)              -330.81089      ORANGE              
     37     (1,317)              -350.76290      ORANGE              
     38     (1,318)              -369.90827      ORANGE              
     39     (1,319)              -388.39766      ORANGE              
     40     (1,320)              -406.34951      ORANGE              
     41     (1,321)              -423.70776      ORANGE              
     42     (1,322)              -440.66658      ORANGE              
     43     (1,323)              -456.99197      ORANGE              
     44     (1,324)              -472.96074      ORANGE              
     45     (1,325)              -488.59738      ORANGE              
     46     (1,326)              -503.71114      ORANGE              
     47     (1,327)              -518.10099      ORANGE              
     48     (1,328)              -531.68510      ORANGE              
     49     (1,329)              -544.49317      ORANGE              
     50     (1,330)              -555.83661      ORANGE              
     51     (1,331)              -565.14327      ORANGE              
     52     (1,332)              -571.45508      ORANGE              
     53     (1,333)              -573.41306      ORANGE              
     54     (1,334)              -567.56970      ORANGE              
     55     (1,335)              -528.72536      ORANGE              
     56     (1,336)              -437.16469      ORANGE              
     57     (1,337)              -393.29582      ORANGE              
     58     (1,338)              -379.27671      ORANGE              
     59     (1,339)              -376.05044      ORANGE              
     68     (1,51)               -204.85170      GOLD                
     69     (1,84)               -225.85275      GOLD                
     70     (1,116)              -244.27386      GOLD                
     71     (1,150)              -263.28325      GOLD                
     72     (1,186)              -285.41258      GOLD                
     73     (1,224)              -312.80863      GOLD                
     74     (1,264)              -349.06250      GOLD                
     75     (1,1)                -320.69184      YELLOWGREEN         
     76     (1,2)                -295.43114      YELLOWGREEN         
     77     (1,3)                -250.65108      YELLOWGREEN         
     78     (1,4)                -181.79303      YELLOWGREEN         
     79     (1,5)                -100.13007      YELLOWGREEN         
     80     (1,6)                -74.375055      YELLOWGREEN         
     81     (1,9)                -69.283679      YELLOWGREEN         
     82     (1,10)               -84.825862      YELLOWGREEN         
     83     (1,11)               -102.57759      YELLOWGREEN         
     84     (1,12)               -120.08743      YELLOWGREEN         
     85     (1,13)               -137.08643      YELLOWGREEN         
     86     (1,14)               -153.50716      YELLOWGREEN         
     87     (1,15)               -169.38061      YELLOWGREEN         
     88     (1,16)               -185.06699      YELLOWGREEN         
     89     (1,17)               -200.80930      YELLOWGREEN         
     90     (1,18)               -216.24736      YELLOWGREEN         
     91     (1,19)               -229.80227      YELLOWGREEN         
     92     (1,20)               -240.64396      YELLOWGREEN         
     93     (1,21)               -249.54151      YELLOWGREEN         
     94     (1,22)               -256.33029      YELLOWGREEN         
     95     (1,23)               -260.31545      YELLOWGREEN         
     96     (1,52)               -500.57866      LIMEGREEN           
     97     (1,85)               -534.53792      LIMEGREEN           
     98     (1,117)              -565.29831      LIMEGREEN           
     99     (1,151)              -589.87076      LIMEGREEN           
    100     (1,187)              -608.35794      LIMEGREEN           
    101     (1,265)              -624.31651      AQUA                
    102     (1,348)              -627.45105      AQUA                
    103     (1,429)              -633.26212      AQUA                
    104     (1,505)              -640.88165      AQUA                
    105     (1,585)              -649.26454      AQUA                
    106     (1,666)              -657.81843      AQUA                
    107     (1,748)              -666.20944      AQUA                
    108     (1,831)              -674.36235      AQUA                
    109     (1,914)              -682.08203      AQUA                
    110     (1,997)              -689.05455      AQUA                
    111     (1,1077)             -695.19664      AQUA                
    112     (1,1157)             -700.65045      AQUA                
    113     (1,1240)             -705.22915      AQUA                
    114     (1,1399)             -771.39597      DARKTURQUOISE       
    115     (1,1486)             -784.88039      DARKTURQUOISE       
    116     (1,1581)             -799.64980      DARKTURQUOISE       
    117     (1,1693)             -813.08045      DARKTURQUOISE       
    118     (1,1777)             -825.61539      DARKTURQUOISE       
    119     (1,1854)             -838.54146      DARKTURQUOISE       
    120     (1,1930)             -850.16027      DARKTURQUOISE       
    121     (1,2005)             -859.55822      DARKTURQUOISE       
    122     (1,2076)             -867.28554      DARKTURQUOISE       
    123     (1,2146)             -874.32699      DARKTURQUOISE       
    124     (1,2215)             -884.94126      DARKTURQUOISE       
    125     (1,2310)             -902.29803      DARKTURQUOISE       
    126     (1,2404)             -913.28984      DARKTURQUOISE       
    127     (1,2488)             -921.61145      DARKTURQUOISE       
    128     (1,2566)             -928.12424      DARKTURQUOISE       
    129     (1,2636)             -932.86119      DARKTURQUOISE       
    130     (1,2705)             -934.70602      DARKTURQUOISE       
    131     (1,2785)             -933.60473      DARKTURQUOISE       
    132     (1,2856)             -935.32845      DARKTURQUOISE       
    133     (1,2921)             -940.24918      DARKTURQUOISE       
    134     (1,2971)             -943.53144      DARKTURQUOISE       
    135     (1,3018)             -942.83921      DARKTURQUOISE       
    136     (1,3061)             -919.67784      DARKTURQUOISE       
    137     (1,3097)             -826.34302      DARKTURQUOISE       
    138     (1,3126)             -604.90299      ROYALBLUE           
    139     (1,3127)             -537.87394      ROYALBLUE           
 --------------------------------------------------------------------



 UBDSV06 SAVING              RCH IN MODEL EXPERIMENTAL     PACKAGE EXPERIMENTAL    CONNECTED TO MODEL EXPERIMENTAL     PACKAGE RCH              ON UNIT   1019 AT TIME STEP     48, STRESS PERIOD      2

 RCH PACKAGE (RCH) FLOW RATES   PERIOD      2   STEP       48
 -----------------------------------------------
   NUMBER   CELLID                    RATE      
 -----------------------------------------------
     1      (1,7)                 24.996338     
     2      (1,8)                 24.995850     
     3      (1,24)                99.984375     
     4      (1,25)                99.984375     
     5      (1,26)                99.985107     
     6      (1,27)                99.983154     
     7      (1,28)                100.00293     
     8      (1,29)                24.996338     
     9      (1,30)                24.996094     
     10     (1,31)                24.996826     
     11     (1,32)                24.996582     
     12     (1,33)                24.994873     
     13     (1,34)                24.996338     
     14     (1,35)                24.995850     
     15     (1,36)                24.999512     
     16     (1,37)                99.953125     
     17     (1,38)                100.03589     
     18     (1,39)                100.05566     
     19     (1,40)                99.984619     
     20     (1,41)                99.984375     
     21     (1,42)                99.984619     
     22     (1,43)                99.984619     
     23     (1,44)                99.984375     
     24     (1,45)                99.983643     
     25     (1,46)                99.983398     
     26     (1,47)                100.05493     
     27     (1,48)                100.05420     
     28     (1,49)                99.985107     
     29     (1,50)                99.989746     
     30     (1,53)                100.05542     
     31     (1,54)                99.984131     
     32     (1,55)                99.984619     
     33     (1,56)                99.983398     
     34     (1,57)                99.983887     
     35     (1,58)                100.02344     
     36     (1,59)                24.998779     
     37     (1,60)                24.995850     
     38     (1,61)                24.996826     
     39     (1,62)                24.996826     
     40     (1,63)                24.996338     
     41     (1,64)                24.996338     
     42     (1,65)                24.995361     
     43     (1,66)                24.995117     
     44     (1,67)                24.995605     
     45     (1,68)                24.994629     
     46     (1,69)                24.995850     
     47     (1,70)                24.996826     
     48     (1,71)                100.01929     
     49     (1,72)                100.05444     
     50     (1,73)                99.984375     
     51     (1,74)                99.983154     
     52     (1,75)                99.984375     
     53     (1,76)                99.984375     
     54     (1,77)                99.984863     
     55     (1,78)                99.984619     
     56     (1,79)                99.983643     
     57     (1,80)                100.05493     
     58     (1,81)                100.06152     
     59     (1,82)                99.989502     
     60     (1,83)                99.985352     
     61     (1,86)                99.983887     
     62     (1,87)                100.05396     
     63     (1,88)                100.05469     
     64     (1,89)                99.983643     
     65     (1,90)                99.983887     
     66     (1,91)                99.991455     
     67     (1,92)                99.991699     
     68     (1,93)                100.00171     
     69     (1,94)                100.01807     
     70     (1,95)                24.996826     
     71     (1,96)                24.996826     
     72     (1,97)                24.995850     
     73     (1,98)                24.995605     
     74     (1,99)                24.995605     
     75     (1,100)               24.996094     
     76     (1,101)               24.996582     
     77     (1,102)               24.995117     
     78     (1,103)               100.02026     
     79     (1,104)               100.05493     
     80     (1,105)               99.983643     
     81     (1,106)               99.984375     
     82     (1,107)               99.984619     
     83     (1,108)               99.984863     
     84     (1,109)               99.985107     
     85     (1,110)               99.984375     
     86     (1,111)               99.991211     
     87     (1,112)               100.06152     
     88     (1,113)               100.05396     
     89     (1,114)               99.983398     
     90     (1,115)               99.983887     
     91     (1,118)               99.983643     
     92     (1,119)               99.983643     
     93     (1,120)               99.984131     
     94     (1,121)               100.05371     
     95     (1,122)               100.05420     
     96     (1,123)               99.991699     
     97     (1,124)               99.990234     
     98     (1,125)               99.983887     
     99     (1,126)               99.984131     
    100     (1,127)               99.984131     
    101     (1,128)               100.01978     
    102     (1,129)               24.996826     
    103     (1,130)               24.995361     
    104     (1,131)               24.997070     
    105     (1,132)               24.995850     
    106     (1,133)               24.996582     
    107     (1,134)               25.000000     
    108     (1,135)               24.999756     
    109     (1,136)               24.996338     
    110     (1,137)               100.01904     
    111     (1,138)               100.05566     
    112     (1,139)               99.983887     
    113     (1,140)               99.984619     
    114     (1,141)               99.984375     
    115     (1,142)               99.984375     
    116     (1,143)               99.990723     
    117     (1,144)               99.992432     
    118     (1,145)               99.983643     
    119     (1,146)               100.05444     
    120     (1,147)               100.05420     
    121     (1,148)               99.985107     
    122     (1,149)               99.984375     
    123     (1,152)               99.984863     
    124     (1,153)               99.984619     
    125     (1,154)               99.982910     
    126     (1,155)               99.985107     
    127     (1,156)               99.982910     
    128     (1,157)               100.06226     
    129     (1,158)               100.06177     
    130     (1,159)               99.984131     
    131     (1,160)               99.983643     
    132     (1,161)               99.984863     
    133     (1,162)               99.984375     
    134     (1,163)               99.984619     
    135     (1,164)               100.02295     
    136     (1,165)               24.997559     
    137     (1,166)               24.997314     
    138     (1,167)               24.996094     
    139     (1,168)               24.997070     
    140     (1,169)               24.996582     
    141     (1,170)               24.995605     
    142     (1,171)               24.995605     
    143     (1,172)               24.995850     
    144     (1,173)               100.02075     
    145     (1,174)               100.05347     
    146     (1,175)               99.984619     
    147     (1,176)               99.984131     
    148     (1,177)               99.990723     
    149     (1,178)               99.991943     
    150     (1,179)               99.985107     
    151     (1,180)               99.984131     
    152     (1,181)               99.983643     
    153     (1,182)               100.05566     
    154     (1,183)               100.05493     
    155     (1,184)               99.983643     
    156     (1,185)               99.983643     
    157     (1,188)               99.984619     
    158     (1,189)               99.984619     
    159     (1,190)               99.985107     
    160     (1,191)               99.984375     
    161     (1,192)               99.983154     
    162     (1,193)               99.991211     
    163     (1,194)               99.991211     
    164     (1,195)               100.05469     
    165     (1,196)               100.05469     
    166     (1,197)               99.983643     
    167     (1,198)               99.982910     
    168     (1,199)               99.984131     
    169     (1,200)               99.985107     
    170     (1,201)               99.984619     
    171     (1,202)               100.01880     
    172     (1,203)               24.995850     
    173     (1,204)               24.995361     
    174     (1,205)               24.996094     
    175     (1,206)               24.995361     
    176     (1,207)               24.995361     
    177     (1,208)               24.996582     
    178     (1,209)               24.996582     
    179     (1,210)               24.996582     
    180     (1,211)               100.01831     
    181     (1,212)               100.05469     
    182     (1,213)               99.990723     
    183     (1,214)               99.990234     
    184     (1,215)               99.985107     
    185     (1,216)               99.984131     
    186     (1,217)               99.984375     
    187     (1,218)               99.984619     
    188     (1,219)               99.984863     
    189     (1,220)               100.05493     
    190     (1,221)               100.05371     
    191     (1,222)               99.984863     
    192     (1,223)               99.984375     
    193     (1,225)               99.983398     
    194     (1,226)               100.05420     
    195     (1,227)               100.05493     
    196     (1,228)               99.983887     
    197     (1,229)               99.984619     
    198     (1,230)               99.984863     
    199     (1,231)               99.990723     
    200     (1,232)               99.991211     
    201     (1,233)               99.984619     
    202     (1,234)               99.984131     
    203     (1,235)               100.05469     
    204     (1,236)               100.05444     
    205     (1,237)               99.984863     
    206     (1,238)               99.983643     
    207     (1,239)               99.983887     
    208     (1,240)               99.984375     
    209     (1,241)               99.983887     
    210     (1,242)               100.02075     
    211     (1,243)               24.997070     
    212     (1,244)               24.995850     
    213     (1,245)               24.995850     
    214     (1,246)               24.996826     
    215     (1,247)               24.996094     
    216     (1,248)               24.996094     
    217     (1,249)               24.995850     
    218     (1,250)               24.996826     
    219     (1,251)               100.02490     
    220     (1,252)               100.05981     
    221     (1,253)               99.999023     
    222     (1,254)               99.984131     
    223     (1,255)               99.983887     
    224     (1,256)               99.984375     
    225     (1,257)               99.984375     
    226     (1,258)               99.984863     
    227     (1,259)               99.984131     
    228     (1,260)               100.05444     
    229     (1,261)               100.05469     
    230     (1,262)               99.983643     
    231     (1,263)               99.983154     
    232     (1,266)               99.983887     
    233     (1,267)               99.984375     
    234     (1,268)               100.05493     
    235     (1,269)               100.05493     
    236     (1,270)               99.985107     
    237     (1,271)               99.992188     
    238     (1,272)               99.990967     
    239     (1,273)               99.983398     
    240     (1,274)               99.983398     
    241     (1,275)               99.983643     
    242     (1,276)               99.983398     
    243     (1,277)               100.05493     
    244     (1,278)               100.05444     
    245     (1,279)               99.983643     
    246     (1,280)               99.983398     
    247     (1,281)               99.984131     
    248     (1,282)               99.984131     
    249     (1,283)               99.983154     
    250     (1,284)               100.01904     
    251     (1,285)               24.995361     
    252     (1,286)               24.995850     
    253     (1,287)               24.996826     
    254     (1,288)               24.998535     
    255     (1,289)               25.000732     
    256     (1,290)               24.996338     
    257     (1,291)               24.995361     
    258     (1,292)               24.995850     
    259     (1,293)               24.996094     
    260     (1,294)               25.031738     
    261     (1,295)               24.996338     
    262     (1,296)               24.996094     
    263     (1,297)               24.995605     
    264     (1,298)               24.995850     
    265     (1,299)               25.031250     
    266     (1,300)               24.995361     
    267     (1,301)               100.01880     
    268     (1,302)               100.00024     
    269     (1,303)               99.984131     
    270     (1,304)               99.983398     
    271     (1,305)               99.983643     
    272     (1,306)               99.984863     
    273     (1,307)               99.984375     
    274     (1,308)               100.05371     
    275     (1,309)               100.05542     
    276     (1,310)               99.983887     
    277     (1,311)               99.984375     
    278     (1,349)               99.984131     
    279     (1,350)               99.984131     
    280     (1,351)               99.984863     
    281     (1,352)               100.05444     
    282     (1,353)               100.06177     
    283     (1,354)               99.991455     
    284     (1,355)               99.984131     
    285     (1,356)               99.984619     
    286     (1,357)               99.984131     
    287     (1,358)               99.984131     
    288     (1,359)               99.984375     
    289     (1,360)               99.983154     
    290     (1,361)               100.05566     
    291     (1,362)               100.05371     
    292     (1,363)               99.984863     
    293     (1,364)               99.984131     
    294     (1,365)               99.984863     
    295     (1,366)               99.983643     
    296     (1,367)               99.990234     
    297     (1,368)               100.00806     
    298     (1,369)               100.00269     
    299     (1,370)               100.02026     
    300     (1,371)               24.997070     
    301     (1,372)               25.031494     
    302     (1,373)               24.995117     
    303     (1,374)               24.995361     
    304     (1,375)               24.995361     
    305     (1,376)               24.993896     
    306     (1,377)               25.031982     
    307     (1,378)               24.996582     
    308     (1,379)               24.995361     
    309     (1,380)               24.996582     
    310     (1,381)               24.994141     
    311     (1,382)               24.996338     
    312     (1,383)               100.00391     
    313     (1,384)               99.984375     
    314     (1,385)               99.984131     
    315     (1,386)               99.982910     
    316     (1,387)               99.984619     
    317     (1,388)               99.984131     
    318     (1,389)               100.05420     
    319     (1,390)               100.05420     
    320     (1,391)               99.992432     
    321     (1,392)               99.989258     
    322     (1,393)               99.984131     
    323     (1,394)               99.983887     
    324     (1,395)               99.984131     
    325     (1,396)               99.983887     
    326     (1,397)               99.983887     
    327     (1,398)               100.05420     
    328     (1,399)               100.05420     
    329     (1,400)               99.983398     
    330     (1,401)               99.984131     
    331     (1,402)               99.983643     
    332     (1,403)               99.984131     
    333     (1,404)               99.984375     
    334     (1,405)               99.984375     
    335     (1,406)               99.990723     
    336     (1,407)               99.991699     
    337     (1,408)               100.05396     
    338     (1,409)               100.05420     
    339     (1,410)               99.983887     
    340     (1,411)               99.984619     
    341     (1,412)               99.983154     
    342     (1,413)               99.984131     
    343     (1,414)               99.983887     
    344     (1,415)               99.983398     
    357     (1,430)               99.984131     
    358     (1,431)               99.984131     
    359     (1,432)               99.983398     
    360     (1,433)               99.990967     
    361     (1,434)               100.06128     
    362     (1,435)               100.05420     
    363     (1,436)               99.983887     
    364     (1,437)               99.983643     
    365     (1,438)               99.983398     
    366     (1,439)               99.983154     
    367     (1,440)               99.984375     
    368     (1,441)               99.985596     
    369     (1,442)               99.983643     
    370     (1,443)               100.05493     
    371     (1,444)               100.05469     
    372     (1,445)               99.983643     
    373     (1,446)               99.984619     
    374     (1,447)               99.990967     
    375     (1,448)               99.990967     
    376     (1,449)               99.983887     
    377     (1,450)               99.984375     
    378     (1,451)               99.983643     
    379     (1,452)               100.00439     
    380     (1,453)               100.05493     
    381     (1,454)               24.996582     
    382     (1,455)               24.995605     
    383     (1,456)               25.031250     
    384     (1,457)               24.996826     
    385     (1,458)               100.02344     
    386     (1,459)               99.984131     
    387     (1,460)               99.984375     
    388     (1,461)               99.984131     
    389     (1,462)               99.983154     
    390     (1,463)               99.982422     
    391     (1,464)               99.984375     
    392     (1,465)               100.06104     
    393     (1,466)               100.06274     
    394     (1,467)               99.984863     
    395     (1,468)               99.983154     
    396     (1,469)               99.983154     
    397     (1,470)               99.984131     
    398     (1,471)               99.983398     
    399     (1,472)               99.983154     
    400     (1,473)               99.983887     
    401     (1,474)               100.05420     
    402     (1,475)               100.05469     
    403     (1,476)               99.983398     
    404     (1,477)               99.984375     
    405     (1,478)               99.983643     
    406     (1,479)               99.983887     
    407     (1,480)               99.990967     
    408     (1,481)               99.990723     
    409     (1,482)               99.984619     
    410     (1,483)               99.984375     
    411     (1,484)               100.05493     
    412     (1,485)               100.05518     
    413     (1,486)               99.984619     
    414     (1,487)               99.984863     
    415     (1,488)               99.983398     
    416     (1,489)               99.983887     
    417     (1,490)               99.984131     
    431     (1,506)               99.983887     
    432     (1,507)               99.984131     
    433     (1,508)               99.991211     
    434     (1,509)               99.991211     
    435     (1,510)               99.983643     
    436     (1,511)               100.05493     
    437     (1,512)               100.05493     
    438     (1,513)               99.984619     
    439     (1,514)               99.984131     
    440     (1,515)               99.983643     
    441     (1,516)               99.984863     
    442     (1,517)               99.985596     
    443     (1,518)               99.983887     
    444     (1,519)               99.984131     
    445     (1,520)               100.05469     
    446     (1,521)               100.05469     
    447     (1,522)               99.991211     
    448     (1,523)               99.990723     
    449     (1,524)               99.985596     
    450     (1,525)               99.984375     
    451     (1,526)               99.984375     
    452     (1,527)               99.983887     
    453     (1,528)               99.983887     
    454     (1,529)               99.999756     
    455     (1,530)               24.995850     
    456     (1,531)               25.035156     
    457     (1,532)               24.999512     
    458     (1,533)               24.995605     
    459     (1,534)               24.995605     
    460     (1,535)               24.996338     
    461     (1,536)               25.030762     
    462     (1,537)               24.996094     
    463     (1,538)               100.01953     
    464     (1,539)               99.984375     
    465     (1,540)               99.984131     
    466     (1,541)               99.984131     
    467     (1,542)               99.983887     
    468     (1,543)               99.991455     
    469     (1,544)               99.990723     
    470     (1,545)               100.05396     
    471     (1,546)               100.05615     
    472     (1,547)               99.983887     
    473     (1,548)               99.984375     
    474     (1,549)               99.983398     
    475     (1,550)               99.984863     
    476     (1,551)               99.984619     
    477     (1,552)               99.984375     
    478     (1,553)               99.984619     
    479     (1,554)               100.05444     
    480     (1,555)               100.05542     
    481     (1,556)               99.984131     
    482     (1,557)               99.982910     
    483     (1,558)               99.990967     
    484     (1,559)               99.991943     
    485     (1,560)               99.984131     
    486     (1,561)               99.983887     
    487     (1,562)               99.983887     
    488     (1,563)               99.984131     
    489     (1,564)               100.05469     
    490     (1,565)               100.05396     
    491     (1,566)               99.983398     
    492     (1,567)               99.984131     
    493     (1,568)               99.984131     
    494     (1,569)               99.984131     
    509     (1,586)               99.984375     
    510     (1,587)               99.990723     
    511     (1,588)               99.990967     
    512     (1,589)               99.984619     
    513     (1,590)               99.984131     
    514     (1,591)               99.984375     
    515     (1,592)               100.05420     
    516     (1,593)               100.05542     
    517     (1,594)               99.983398     
    518     (1,595)               99.984619     
    519     (1,596)               99.983154     
    520     (1,597)               99.983887     
    521     (1,598)               99.983887     
    522     (1,599)               99.983643     
    523     (1,600)               99.984375     
    524     (1,601)               100.06152     
    525     (1,602)               100.06128     
    526     (1,603)               99.983154     
    527     (1,604)               99.985107     
    528     (1,605)               99.984863     
    529     (1,606)               99.985352     
    530     (1,607)               99.984375     
    531     (1,608)               99.983887     
    532     (1,609)               99.985107     
    533     (1,610)               100.02100     
    534     (1,611)               24.995361     
    535     (1,612)               25.031250     
    536     (1,613)               24.996094     
    537     (1,614)               24.995605     
    538     (1,615)               24.996338     
    539     (1,616)               24.995850     
    540     (1,617)               25.031738     
    541     (1,618)               24.996582     
    542     (1,619)               100.02148     
    543     (1,620)               99.983643     
    544     (1,621)               99.984619     
    545     (1,622)               99.990234     
    546     (1,623)               99.990723     
    547     (1,624)               99.983398     
    548     (1,625)               99.983643     
    549     (1,626)               100.05396     
    550     (1,627)               100.05469     
    551     (1,628)               99.985352     
    552     (1,629)               99.983643     
    553     (1,630)               99.984375     
    554     (1,631)               99.983398     
    555     (1,632)               99.983398     
    556     (1,633)               99.984131     
    557     (1,634)               99.983887     
    558     (1,635)               100.05444     
    559     (1,636)               100.05420     
    560     (1,637)               99.989746     
    561     (1,638)               99.990234     
    562     (1,639)               99.983643     
    563     (1,640)               99.983643     
    564     (1,641)               99.984619     
    565     (1,642)               99.984863     
    566     (1,643)               99.983887     
    567     (1,644)               99.983887     
    568     (1,645)               100.05396     
    569     (1,646)               100.05420     
    570     (1,647)               99.984375     
    571     (1,648)               99.983887     
    572     (1,649)               99.984131     
    573     (1,650)               99.984863     
    582     (1,659)               99.983887     
    588     (1,667)               99.992188     
    589     (1,668)               99.990967     
    590     (1,669)               99.984375     
    591     (1,670)               99.984131     
    592     (1,671)               99.983643     
    593     (1,672)               99.984863     
    594     (1,673)               99.984131     
    595     (1,674)               100.05566     
    596     (1,675)               100.05420     
    597     (1,676)               99.984619     
    598     (1,677)               99.983887     
    599     (1,678)               99.984619     
    600     (1,679)               99.983154     
    601     (1,680)               99.984131     
    602     (1,681)               99.992676     
    603     (1,682)               99.991211     
    604     (1,683)               100.05371     
    605     (1,684)               100.05420     
    606     (1,685)               99.984375     
    607     (1,686)               99.984375     
    608     (1,687)               99.983643     
    609     (1,688)               99.984863     
    610     (1,689)               99.984619     
    611     (1,690)               99.983643     
    612     (1,691)               99.983398     
    613     (1,692)               100.01782     
    614     (1,693)               24.995605     
    615     (1,694)               25.031738     
    616     (1,695)               24.996582     
    617     (1,696)               24.995850     
    618     (1,697)               24.996826     
    619     (1,698)               24.995361     
    620     (1,699)               25.031982     
    621     (1,700)               24.996826     
    622     (1,701)               100.02124     
    623     (1,702)               99.991211     
    624     (1,703)               99.991211     
    625     (1,704)               99.984131     
    626     (1,705)               99.983154     
    627     (1,706)               99.983398     
    628     (1,707)               99.984375     
    629     (1,708)               100.05420     
    630     (1,709)               100.05591     
    631     (1,710)               99.983887     
    632     (1,711)               99.984375     
    633     (1,712)               99.983887     
    634     (1,713)               99.983643     
    635     (1,714)               99.984131     
    636     (1,715)               99.983154     
    637     (1,716)               99.985107     
    638     (1,717)               100.06104     
    639     (1,718)               100.06104     
    640     (1,719)               99.984131     
    641     (1,720)               99.983887     
    642     (1,721)               99.984131     
    643     (1,722)               99.983887     
    644     (1,723)               99.983643     
    645     (1,724)               99.983154     
    646     (1,725)               99.983154     
    647     (1,726)               99.985107     
    648     (1,727)               100.05566     
    649     (1,728)               100.05493     
    650     (1,729)               99.983643     
    651     (1,730)               99.984619     
    652     (1,731)               99.991211     
    655     (1,734)               99.984131     
    659     (1,738)               99.984131     
    661     (1,740)               99.984131     
    662     (1,741)               99.982910     
    668     (1,749)               100.06226     
    669     (1,750)               99.983154     
    670     (1,751)               99.983887     
    671     (1,752)               99.983398     
    672     (1,753)               99.984375     
    673     (1,754)               99.984375     
    674     (1,755)               99.983643     
    675     (1,756)               99.984375     
    676     (1,757)               100.05469     
    677     (1,758)               100.05444     
    678     (1,759)               99.984619     
    679     (1,760)               99.984375     
    680     (1,761)               99.983887     
    681     (1,762)               99.990723     
    682     (1,763)               99.991211     
    683     (1,764)               99.983398     
    684     (1,765)               99.983643     
    685     (1,766)               100.05420     
    686     (1,767)               100.05444     
    687     (1,768)               99.983887     
    688     (1,769)               99.983887     
    689     (1,770)               99.983398     
    690     (1,771)               99.983887     
    691     (1,772)               99.983398     
    692     (1,773)               99.984619     
    693     (1,774)               99.983398     
    694     (1,775)               100.01904     
    695     (1,776)               24.996094     
    696     (1,777)               25.031982     
    697     (1,778)               24.996094     
    698     (1,779)               24.997070     
    699     (1,780)               24.995850     
    700     (1,781)               24.995605     
    701     (1,782)               25.030518     
    702     (1,783)               24.999268     
    703     (1,784)               100.02612     
    704     (1,785)               99.984375     
    705     (1,786)               99.984375     
    706     (1,787)               99.984131     
    707     (1,788)               99.983887     
    708     (1,789)               99.984375     
    709     (1,790)               99.984619     
    710     (1,791)               100.05469     
    711     (1,792)               100.05420     
    712     (1,793)               99.984131     
    713     (1,794)               99.983887     
    714     (1,795)               99.983643     
    715     (1,796)               99.984863     
    716     (1,797)               99.983398     
    717     (1,798)               99.991211     
    718     (1,799)               99.990479     
    719     (1,800)               100.05493     
    720     (1,801)               100.05420     
    721     (1,802)               99.984375     
    722     (1,803)               99.984131     
    723     (1,804)               99.983643     
    724     (1,805)               99.983643     
    725     (1,806)               99.983887     
    726     (1,807)               99.984863     
    727     (1,808)               99.984375     
    728     (1,809)               99.984375     
    729     (1,810)               100.05493     
    730     (1,811)               100.05420     
    731     (1,812)               99.990723     
    732     (1,813)               99.991699     
    740     (1,821)               99.985107     
    741     (1,822)               99.984375     
    742     (1,823)               99.984375     
    749     (1,832)               100.05444     
    750     (1,833)               100.05371     
    751     (1,834)               99.983643     
    752     (1,835)               99.983398     
    753     (1,836)               99.984131     
    754     (1,837)               99.983643     
    755     (1,838)               99.984863     
    756     (1,839)               99.983643     
    757     (1,840)               99.984375     
    758     (1,841)               100.05493     
    759     (1,842)               100.05469     
    760     (1,843)               99.984619     
    761     (1,844)               99.991699     
    762     (1,845)               99.991455     
    763     (1,846)               99.984375     
    764     (1,847)               99.984375     
    765     (1,848)               99.983643     
    766     (1,849)               99.984375     
    767     (1,850)               100.05396     
    768     (1,851)               100.05542     
    769     (1,852)               99.984619     
    770     (1,853)               99.984375     
    771     (1,854)               99.983643     
    772     (1,855)               99.983887     
    773     (1,856)               99.983154     
    774     (1,857)               99.982910     
    775     (1,858)               99.984375     
    776     (1,859)               100.02490     
    777     (1,860)               24.999268     
    778     (1,861)               25.032471     
    779     (1,862)               24.996826     
    780     (1,863)               24.995605     
    781     (1,864)               24.996338     
    782     (1,865)               24.996094     
    783     (1,866)               25.030762     
    784     (1,867)               24.994385     
    785     (1,868)               100.01733     
    786     (1,869)               99.984619     
    787     (1,870)               99.984619     
    788     (1,871)               99.984131     
    789     (1,872)               99.984619     
    790     (1,873)               99.982422     
    791     (1,874)               99.984375     
    792     (1,875)               100.05566     
    793     (1,876)               100.05493     
    794     (1,877)               99.982910     
    795     (1,878)               99.984863     
    796     (1,879)               99.983887     
    797     (1,880)               99.990479     
    798     (1,881)               99.990479     
    799     (1,882)               99.984619     
    800     (1,883)               99.984375     
    801     (1,884)               100.05469     
    802     (1,885)               100.05493     
    803     (1,886)               99.984619     
    804     (1,887)               99.983887     
    805     (1,888)               99.984619     
    806     (1,889)               99.983398     
    807     (1,890)               99.984863     
    808     (1,891)               99.984131     
    809     (1,892)               99.984375     
    810     (1,893)               99.982910     
    811     (1,894)               100.06104     
    812     (1,895)               100.06152     
    813     (1,896)               99.984619     
    819     (1,902)               99.983154     
    820     (1,903)               100.05566     
    821     (1,904)               100.05444     
    822     (1,905)               99.983643     
    823     (1,906)               99.985107     
    830     (1,915)               99.984619     
    831     (1,916)               100.05322     
    832     (1,917)               100.05518     
    833     (1,918)               99.983643     
    834     (1,919)               99.983887     
    835     (1,920)               99.984375     
    836     (1,921)               99.985352     
    837     (1,922)               99.983887     
    838     (1,923)               99.984131     
    839     (1,924)               99.983887     
    840     (1,925)               100.05518     
    841     (1,926)               100.06201     
    842     (1,927)               99.990479     
    843     (1,928)               99.983643     
    844     (1,929)               99.984619     
    845     (1,930)               99.984375     
    846     (1,931)               99.983154     
    847     (1,932)               99.983398     
    848     (1,933)               99.983643     
    849     (1,934)               100.05420     
    850     (1,935)               100.05420     
    851     (1,936)               99.983887     
    852     (1,937)               99.983643     
    853     (1,938)               99.984863     
    854     (1,939)               99.983398     
    855     (1,940)               99.983398     
    856     (1,941)               99.990479     
    857     (1,942)               99.990479     
    858     (1,943)               100.01904     
    859     (1,944)               24.996826     
    860     (1,945)               25.031738     
    861     (1,946)               24.996338     
    862     (1,947)               24.996094     
    863     (1,948)               24.995361     
    864     (1,949)               24.996338     
    865     (1,950)               25.031738     
    866     (1,951)               24.995361     
    867     (1,952)               100.00415     
    868     (1,953)               99.982910     
    869     (1,954)               99.983154     
    870     (1,955)               99.984863     
    871     (1,956)               99.984375     
    872     (1,957)               99.983643     
    873     (1,958)               99.983887     
    874     (1,959)               100.05444     
    875     (1,960)               100.05493     
    876     (1,961)               99.984131     
    877     (1,962)               99.990967     
    878     (1,963)               99.991455     
    879     (1,964)               99.983398     
    880     (1,965)               99.983887     
    881     (1,966)               99.984619     
    882     (1,967)               99.983643     
    883     (1,968)               100.05518     
    884     (1,969)               100.05322     
    885     (1,970)               99.983398     
    886     (1,971)               99.984619     
    887     (1,972)               99.983398     
    888     (1,973)               99.984131     
    889     (1,974)               99.982910     
    890     (1,975)               99.984863     
    891     (1,976)               99.991211     
    892     (1,977)               99.991455     
    893     (1,978)               100.05566     
    894     (1,979)               100.05396     
    895     (1,980)               99.984375     
    896     (1,981)               99.983643     
    897     (1,982)               99.983398     
    898     (1,983)               99.984619     
    899     (1,984)               99.984863     
    900     (1,985)               99.984863     
    901     (1,986)               99.985107     
    902     (1,987)               100.05469     
    903     (1,988)               100.05347     
    904     (1,989)               99.984131     
    911     (1,998)               99.983398     
    912     (1,999)               99.983887     
    913     (1,1000)              100.05396     
    914     (1,1001)              100.05493     
    915     (1,1002)              99.983887     
    916     (1,1003)              99.983643     
    917     (1,1004)              99.983154     
    918     (1,1005)              99.983398     
    919     (1,1006)              99.984131     
    920     (1,1007)              99.983643     
    921     (1,1008)              99.991943     
    922     (1,1009)              100.06299     
    923     (1,1010)              100.05444     
    924     (1,1011)              99.984619     
    925     (1,1012)              99.985107     
    926     (1,1013)              99.984131     
    927     (1,1014)              99.984619     
    928     (1,1015)              99.983398     
    929     (1,1016)              99.984131     
    930     (1,1017)              99.984375     
    931     (1,1018)              100.05444     
    932     (1,1019)              100.05396     
    933     (1,1020)              99.984131     
    934     (1,1021)              99.983154     
    935     (1,1022)              99.983643     
    936     (1,1023)              99.991211     
    937     (1,1024)              99.991699     
    938     (1,1025)              99.983643     
    939     (1,1026)              99.983643     
    940     (1,1027)              100.01880     
    941     (1,1028)              24.995605     
    942     (1,1029)              25.031982     
    943     (1,1030)              24.997559     
    944     (1,1031)              24.995605     
    945     (1,1032)              100.05615     
    946     (1,1033)              99.984131     
    947     (1,1034)              99.984619     
    948     (1,1035)              99.983398     
    949     (1,1036)              99.983887     
    950     (1,1037)              99.984863     
    951     (1,1038)              99.984375     
    952     (1,1039)              99.984375     
    953     (1,1040)              100.05615     
    954     (1,1041)              100.06104     
    955     (1,1042)              99.990723     
    956     (1,1043)              99.983887     
    957     (1,1044)              99.983643     
    958     (1,1045)              99.983643     
    959     (1,1046)              99.983154     
    960     (1,1047)              99.983398     
    961     (1,1048)              99.984375     
    962     (1,1049)              100.05518     
    963     (1,1050)              100.05371     
    964     (1,1051)              99.983398     
    965     (1,1052)              99.983398     
    966     (1,1053)              99.984375     
    967     (1,1054)              99.983887     
    968     (1,1055)              99.991455     
    969     (1,1056)              99.991211     
    970     (1,1057)              99.984375     
    971     (1,1058)              99.983398     
    972     (1,1059)              100.05396     
    973     (1,1060)              100.05420     
    974     (1,1061)              99.984375     
    975     (1,1062)              99.983887     
    976     (1,1063)              99.985107     
    977     (1,1064)              99.983398     
    978     (1,1065)              99.983154     
    979     (1,1066)              99.984131     
    980     (1,1067)              99.984619     
    981     (1,1068)              100.05371     
    982     (1,1069)              100.05542     
    989     (1,1078)              99.984131     
    990     (1,1079)              99.983643     
    991     (1,1080)              99.984619     
    992     (1,1081)              100.05493     
    993     (1,1082)              100.05493     
    994     (1,1083)              99.984131     
    995     (1,1084)              99.984375     
    996     (1,1085)              99.983398     
    997     (1,1086)              99.983887     
    998     (1,1087)              99.990723     
    999     (1,1088)              99.990967     
    1000    (1,1089)              99.984619     
    1001    (1,1090)              100.05371     
    1002    (1,1091)              100.05469     
    1003    (1,1092)              99.985107     
    1004    (1,1093)              99.983398     
    1005    (1,1094)              99.984863     
    1006    (1,1095)              99.983643     
    1007    (1,1096)              99.984619     
    1008    (1,1097)              99.983398     
    1009    (1,1098)              99.984863     
    1010    (1,1099)              100.05420     
    1011    (1,1100)              100.05493     
    1012    (1,1101)              99.984619     
    1013    (1,1102)              99.991211     
    1014    (1,1103)              99.991455     
    1015    (1,1104)              99.984131     
    1016    (1,1105)              99.984131     
    1017    (1,1106)              99.983887     
    1018    (1,1107)              100.00049     
    1019    (1,1108)              24.996582     
    1020    (1,1109)              24.996094     
    1021    (1,1110)              24.996582     
    1022    (1,1111)              24.996338     
    1023    (1,1112)              100.01929     
    1024    (1,1113)              100.05444     
    1025    (1,1114)              99.984375     
    1026    (1,1115)              99.984375     
    1027    (1,1116)              99.984619     
    1028    (1,1117)              99.984619     
    1029    (1,1118)              99.984375     
    1030    (1,1119)              99.984863     
    1031    (1,1120)              99.990723     
    1032    (1,1121)              100.06079     
    1033    (1,1122)              100.05493     
    1034    (1,1123)              99.983887     
    1035    (1,1124)              99.984863     
    1036    (1,1125)              99.984619     
    1037    (1,1126)              99.984131     
    1038    (1,1127)              99.984131     
    1039    (1,1128)              99.983643     
    1040    (1,1129)              99.983398     
    1041    (1,1130)              100.05444     
    1042    (1,1131)              100.05444     
    1043    (1,1132)              99.984131     
    1044    (1,1133)              99.982910     
    1045    (1,1134)              99.990723     
    1046    (1,1135)              99.991699     
    1047    (1,1136)              99.984131     
    1048    (1,1137)              99.984619     
    1049    (1,1138)              99.984375     
    1050    (1,1139)              99.984863     
    1051    (1,1140)              100.05469     
    1052    (1,1141)              100.05542     
    1053    (1,1142)              99.984619     
    1054    (1,1143)              99.985107     
    1055    (1,1144)              99.983887     
    1056    (1,1145)              99.983643     
    1057    (1,1146)              99.983398     
    1058    (1,1147)              99.984131     
    1059    (1,1148)              99.983398     
    1067    (1,1158)              99.984375     
    1068    (1,1159)              99.982910     
    1069    (1,1160)              99.983398     
    1070    (1,1161)              99.984375     
    1071    (1,1162)              100.05518     
    1072    (1,1163)              100.05371     
    1073    (1,1164)              99.984863     
    1074    (1,1165)              99.984375     
    1075    (1,1166)              99.989990     
    1076    (1,1167)              99.989990     
    1077    (1,1168)              99.983887     
    1078    (1,1169)              99.983643     
    1079    (1,1170)              99.984863     
    1080    (1,1171)              100.05420     
    1081    (1,1172)              100.05493     
    1082    (1,1173)              99.983154     
    1083    (1,1174)              99.984619     
    1084    (1,1175)              99.984863     
    1085    (1,1176)              99.983398     
    1086    (1,1177)              99.984131     
    1087    (1,1178)              99.984131     
    1088    (1,1179)              99.985107     
    1089    (1,1180)              100.05518     
    1090    (1,1181)              100.06226     
    1091    (1,1182)              99.990479     
    1092    (1,1183)              99.983643     
    1093    (1,1184)              99.983887     
    1094    (1,1185)              99.985107     
    1095    (1,1186)              99.984375     
    1096    (1,1187)              99.999756     
    1097    (1,1188)              24.994873     
    1098    (1,1189)              24.996582     
    1099    (1,1190)              24.995850     
    1100    (1,1191)              24.996826     
    1101    (1,1192)              24.995850     
    1102    (1,1193)              24.999756     
    1103    (1,1194)              25.000000     
    1104    (1,1195)              24.996094     
    1105    (1,1196)              100.03516     
    1106    (1,1197)              100.05469     
    1107    (1,1198)              99.984619     
    1108    (1,1199)              99.984131     
    1109    (1,1200)              99.984131     
    1110    (1,1201)              99.984375     
    1111    (1,1202)              99.990723     
    1112    (1,1203)              99.991211     
    1113    (1,1204)              99.983643     
    1114    (1,1205)              100.05615     
    1115    (1,1206)              100.05493     
    1116    (1,1207)              99.984131     
    1117    (1,1208)              99.985596     
    1118    (1,1209)              99.983643     
    1119    (1,1210)              99.983398     
    1120    (1,1211)              99.984375     
    1121    (1,1212)              99.983887     
    1122    (1,1213)              99.984863     
    1123    (1,1214)              100.05444     
    1124    (1,1215)              100.05518     
    1125    (1,1216)              99.989746     
    1126    (1,1217)              99.990479     
    1127    (1,1218)              99.983887     
    1128    (1,1219)              99.983643     
    1129    (1,1220)              99.984619     
    1130    (1,1221)              99.983887     
    1131    (1,1222)              99.984619     
    1132    (1,1223)              99.984619     
    1133    (1,1224)              100.05493     
    1134    (1,1225)              100.05518     
    1135    (1,1226)              99.984375     
    1136    (1,1227)              99.984863     
    1137    (1,1228)              99.985107     
    1138    (1,1229)              99.984619     
    1139    (1,1230)              99.983643     
    1140    (1,1231)              99.991211     
    1141    (1,1232)              99.992432     
    1148    (1,1241)              99.983643     
    1149    (1,1242)              99.983643     
    1150    (1,1243)              99.982666     
    1151    (1,1244)              99.984375     
    1152    (1,1245)              99.983887     
    1153    (1,1246)              100.05542     
    1154    (1,1247)              100.05542     
    1155    (1,1248)              99.992188     
    1156    (1,1249)              99.991943     
    1157    (1,1250)              99.984619     
    1158    (1,1251)              99.984619     
    1159    (1,1252)              99.984131     
    1160    (1,1253)              99.983887     
    1161    (1,1254)              99.983643     
    1162    (1,1255)              100.05542     
    1163    (1,1256)              100.05469     
    1164    (1,1257)              99.984619     
    1165    (1,1258)              99.984375     
    1166    (1,1259)              99.985107     
    1167    (1,1260)              99.984131     
    1168    (1,1261)              99.984863     
    1169    (1,1262)              99.983887     
    1170    (1,1263)              99.992920     
    1171    (1,1264)              100.06030     
    1172    (1,1265)              100.05396     
    1173    (1,1266)              99.985107     
    1174    (1,1267)              99.983887     
    1175    (1,1268)              99.984619     
    1176    (1,1269)              99.984619     
    1177    (1,1270)              99.984619     
    1178    (1,1271)              100.02271     
    1179    (1,1272)              24.994629     
    1180    (1,1273)              24.997070     
    1181    (1,1274)              24.995605     
    1182    (1,1275)              24.995605     
    1183    (1,1276)              99.964355     
    1184    (1,1277)              100.05542     
    1185    (1,1278)              100.05542     
    1186    (1,1279)              99.984375     
    1187    (1,1280)              99.983398     
    1188    (1,1281)              99.992188     
    1189    (1,1282)              99.991699     
    1190    (1,1283)              99.985107     
    1191    (1,1284)              99.983398     
    1192    (1,1285)              99.984863     
    1193    (1,1286)              100.05420     
    1194    (1,1287)              100.05493     
    1195    (1,1288)              99.985352     
    1196    (1,1289)              99.984619     
    1197    (1,1290)              99.983887     
    1198    (1,1291)              99.983643     
    1199    (1,1292)              99.983643     
    1200    (1,1293)              99.983643     
    1201    (1,1294)              99.984131     
    1202    (1,1295)              100.06104     
    1203    (1,1296)              100.06152     
    1204    (1,1297)              99.983887     
    1205    (1,1298)              99.984863     
    1206    (1,1299)              99.984863     
    1207    (1,1300)              99.984375     
    1208    (1,1301)              99.984131     
    1209    (1,1302)              99.984619     
    1210    (1,1303)              99.984131     
    1211    (1,1304)              99.984863     
    1212    (1,1305)              100.05518     
    1213    (1,1306)              100.05469     
    1214    (1,1307)              99.984619     
    1215    (1,1308)              99.984131     
    1216    (1,1309)              99.983887     
    1217    (1,1310)              99.991211     
    1218    (1,1311)              99.990967     
    1219    (1,1312)              99.983398     
    1226    (1,1320)              99.985596     
    1227    (1,1321)              99.984375     
    1228    (1,1322)              99.985107     
    1229    (1,1323)              99.984619     
    1230    (1,1324)              99.983643     
    1231    (1,1325)              99.985107     
    1232    (1,1326)              100.06250     
    1233    (1,1327)              100.06152     
    1234    (1,1328)              99.984131     
    1235    (1,1329)              99.983643     
    1236    (1,1330)              99.983887     
    1237    (1,1331)              99.983887     
    1238    (1,1332)              99.984131     
    1239    (1,1333)              99.984131     
    1240    (1,1334)              99.984375     
    1241    (1,1335)              100.05444     
    1242    (1,1336)              100.05566     
    1243    (1,1337)              99.984131     
    1244    (1,1338)              99.983154     
    1245    (1,1339)              99.984619     
    1246    (1,1340)              99.984375     
    1247    (1,1341)              99.990479     
    1248    (1,1342)              99.991455     
    1249    (1,1343)              99.984131     
    1250    (1,1344)              100.05493     
    1251    (1,1345)              100.05371     
    1252    (1,1346)              99.983887     
    1253    (1,1347)              99.982910     
    1254    (1,1348)              99.983398     
    1255    (1,1349)              99.983643     
    1256    (1,1350)              100.02148     
    1257    (1,1351)              24.996826     
    1258    (1,1352)              24.996094     
    1259    (1,1353)              24.995605     
    1260    (1,1354)              24.996338     
    1261    (1,1355)              99.966553     
    1262    (1,1356)              99.984131     
    1263    (1,1357)              100.05469     
    1264    (1,1358)              100.05371     
    1265    (1,1359)              99.990723     
    1266    (1,1360)              99.991943     
    1267    (1,1361)              99.984375     
    1268    (1,1362)              99.984863     
    1269    (1,1363)              99.984375     
    1270    (1,1364)              99.984619     
    1271    (1,1365)              99.965332     
    1272    (1,1366)              100.03491     
    1273    (1,1367)              100.05420     
    1274    (1,1368)              99.984131     
    1275    (1,1369)              99.984131     
    1276    (1,1370)              99.984131     
    1277    (1,1371)              99.983398     
    1278    (1,1372)              99.983887     
    1279    (1,1373)              99.991211     
    1280    (1,1374)              99.990723     
    1281    (1,1375)              100.05493     
    1282    (1,1376)              100.05493     
    1283    (1,1377)              99.984131     
    1284    (1,1378)              99.984131     
    1285    (1,1379)              99.984375     
    1286    (1,1380)              99.983643     
    1287    (1,1381)              99.983887     
    1288    (1,1382)              99.983398     
    1289    (1,1383)              99.983887     
    1290    (1,1384)              99.983154     
    1291    (1,1385)              100.05396     
    1292    (1,1386)              100.05444     
    1293    (1,1387)              99.984131     
    1294    (1,1388)              99.990723     
    1295    (1,1389)              99.990967     
    1296    (1,1390)              99.984619     
    1297    (1,1391)              99.984131     
    1304    (1,1400)              99.984131     
    1305    (1,1401)              99.985107     
    1306    (1,1402)              99.984863     
    1307    (1,1403)              99.991211     
    1308    (1,1404)              99.991699     
    1309    (1,1405)              100.05420     
    1310    (1,1406)              100.05444     
    1311    (1,1407)              99.983643     
    1312    (1,1408)              99.983398     
    1313    (1,1409)              99.984131     
    1314    (1,1410)              99.984131     
    1315    (1,1411)              99.983643     
    1316    (1,1412)              99.984131     
    1317    (1,1413)              99.984375     
    1318    (1,1414)              100.05469     
    1319    (1,1415)              100.05518     
    1320    (1,1416)              99.984375     
    1321    (1,1417)              99.984863     
    1322    (1,1418)              99.991699     
    1323    (1,1419)              99.989502     
    1324    (1,1420)              99.984619     
    1325    (1,1421)              99.984131     
    1326    (1,1422)              99.983643     
    1327    (1,1423)              100.05493     
    1328    (1,1424)              100.05493     
    1329    (1,1425)              99.984619     
    1330    (1,1426)              99.984619     
    1331    (1,1427)              99.968750     
    1332    (1,1428)              24.996094     
    1333    (1,1429)              24.996338     
    1334    (1,1430)              24.995361     
    1335    (1,1431)              24.995850     
    1336    (1,1432)              25.031738     
    1337    (1,1433)              24.996582     
    1338    (1,1434)              24.996582     
    1339    (1,1435)              25.030518     
    1340    (1,1436)              99.948242     
    1341    (1,1437)              99.983643     
    1342    (1,1438)              99.983398     
    1343    (1,1439)              100.06177     
    1344    (1,1440)              100.06079     
    1345    (1,1441)              99.984131     
    1346    (1,1442)              99.984619     
    1347    (1,1443)              99.984375     
    1348    (1,1444)              99.984863     
    1349    (1,1445)              99.980957     
    1350    (1,1446)              24.996582     
    1351    (1,1447)              24.996582     
    1352    (1,1448)              24.996582     
    1353    (1,1449)              24.996582     
    1354    (1,1450)              24.995117     
    1355    (1,1451)              25.000000     
    1356    (1,1452)              24.999512     
    1357    (1,1453)              24.996582     
    1358    (1,1454)              100.01807     
    1359    (1,1455)              100.05566     
    1360    (1,1456)              99.984131     
    1361    (1,1457)              99.983643     
    1362    (1,1458)              99.984131     
    1363    (1,1459)              99.984131     
    1364    (1,1460)              99.991455     
    1365    (1,1461)              99.984619     
    1366    (1,1462)              99.984375     
    1367    (1,1463)              100.05566     
    1368    (1,1464)              100.05469     
    1369    (1,1465)              99.984375     
    1370    (1,1466)              99.984375     
    1371    (1,1467)              99.983643     
    1372    (1,1468)              99.983887     
    1373    (1,1469)              99.984131     
    1374    (1,1470)              99.984375     
    1375    (1,1471)              99.984619     
    1376    (1,1472)              99.984863     
    1377    (1,1473)              100.05566     
    1378    (1,1474)              100.06250     
    1379    (1,1475)              99.990967     
    1380    (1,1476)              99.983887     
    1381    (1,1477)              99.984131     
    1382    (1,1478)              99.984863     
    1389    (1,1487)              99.984131     
    1390    (1,1488)              99.992188     
    1391    (1,1489)              99.991455     
    1392    (1,1490)              99.984375     
    1393    (1,1491)              99.984619     
    1394    (1,1492)              100.05396     
    1395    (1,1493)              100.05420     
    1396    (1,1494)              99.983398     
    1397    (1,1495)              99.983643     
    1398    (1,1496)              99.984375     
    1399    (1,1497)              99.983643     
    1400    (1,1498)              99.983887     
    1401    (1,1499)              99.984131     
    1402    (1,1500)              99.984375     
    1403    (1,1501)              100.05518     
    1404    (1,1502)              100.05518     
    1405    (1,1503)              99.991943     
    1406    (1,1504)              99.991211     
    1407    (1,1505)              99.982910     
    1408    (1,1506)              99.983398     
    1409    (1,1507)              99.983887     
    1410    (1,1508)              99.983398     
    1411    (1,1509)              99.983887     
    1412    (1,1510)              100.05469     
    1413    (1,1511)              100.05469     
    1414    (1,1512)              99.984375     
    1415    (1,1513)              99.968750     
    1416    (1,1514)              24.995605     
    1417    (1,1515)              24.996582     
    1418    (1,1516)              24.995361     
    1419    (1,1517)              24.995361     
    1420    (1,1518)              24.996338     
    1421    (1,1519)              24.997559     
    1422    (1,1520)              24.996582     
    1423    (1,1521)              24.996094     
    1424    (1,1522)              25.031982     
    1425    (1,1523)              24.996094     
    1426    (1,1524)              24.996338     
    1427    (1,1525)              25.032471     
    1428    (1,1526)              99.949219     
    1429    (1,1527)              99.973145     
    1430    (1,1528)              99.969482     
    1431    (1,1529)              100.03564     
    1432    (1,1530)              100.05273     
    1433    (1,1531)              100.00049     
    1434    (1,1532)              100.00000     
    1435    (1,1533)              99.979736     
    1436    (1,1534)              25.030762     
    1437    (1,1535)              24.996582     
    1438    (1,1536)              24.996826     
    1439    (1,1537)              25.031738     
    1440    (1,1538)              24.996338     
    1441    (1,1539)              24.999512     
    1442    (1,1540)              25.000000     
    1443    (1,1541)              24.996582     
    1444    (1,1542)              24.995605     
    1445    (1,1543)              24.995117     
    1446    (1,1544)              24.996094     
    1447    (1,1545)              24.995605     
    1448    (1,1546)              24.996338     
    1449    (1,1547)              24.995117     
    1450    (1,1548)              24.996094     
    1451    (1,1549)              24.994873     
    1452    (1,1550)              100.03564     
    1453    (1,1551)              100.05396     
    1454    (1,1552)              99.984131     
    1455    (1,1553)              99.984863     
    1456    (1,1554)              99.990479     
    1457    (1,1555)              99.990723     
    1458    (1,1556)              99.984619     
    1459    (1,1557)              99.984375     
    1460    (1,1558)              99.984619     
    1461    (1,1559)              100.05566     
    1462    (1,1560)              100.05444     
    1463    (1,1561)              99.983887     
    1464    (1,1562)              99.985107     
    1465    (1,1563)              99.984619     
    1466    (1,1564)              99.983887     
    1467    (1,1565)              99.984375     
    1468    (1,1566)              99.984375     
    1469    (1,1567)              99.983643     
    1470    (1,1568)              99.991455     
    1471    (1,1569)              100.06177     
    1472    (1,1570)              100.05493     
    1473    (1,1571)              99.984619     
    1482    (1,1582)              99.991455     
    1483    (1,1583)              99.984131     
    1484    (1,1584)              99.984131     
    1485    (1,1585)              99.983154     
    1486    (1,1586)              99.983887     
    1487    (1,1587)              100.05469     
    1488    (1,1588)              100.05542     
    1489    (1,1589)              99.983643     
    1490    (1,1590)              99.983643     
    1491    (1,1591)              99.983154     
    1492    (1,1592)              99.983643     
    1493    (1,1593)              99.984619     
    1494    (1,1594)              99.984131     
    1495    (1,1595)              99.985107     
    1496    (1,1596)              100.06152     
    1497    (1,1597)              100.06128     
    1498    (1,1598)              99.984619     
    1499    (1,1599)              99.984619     
    1500    (1,1600)              99.984863     
    1501    (1,1601)              99.984375     
    1502    (1,1602)              99.985107     
    1503    (1,1603)              99.983643     
    1504    (1,1604)              99.984131     
    1505    (1,1605)              100.05469     
    1506    (1,1606)              100.05469     
    1507    (1,1607)              99.984131     
    1508    (1,1608)              99.965088     
    1509    (1,1609)              99.948730     
    1510    (1,1610)              24.996338     
    1511    (1,1611)              24.994873     
    1512    (1,1612)              24.995850     
    1513    (1,1613)              24.995850     
    1514    (1,1614)              25.031494     
    1515    (1,1615)              24.995850     
    1516    (1,1616)              24.995605     
    1517    (1,1617)              25.035400     
    1518    (1,1618)              24.998291     
    1519    (1,1619)              24.996338     
    1520    (1,1620)              24.994873     
    1521    (1,1621)              24.995605     
    1522    (1,1622)              24.996338     
    1523    (1,1623)              24.996338     
    1524    (1,1624)              24.995850     
    1525    (1,1625)              24.995605     
    1526    (1,1626)              24.996338     
    1527    (1,1627)              24.995361     
    1528    (1,1628)              24.995850     
    1529    (1,1629)              24.996826     
    1530    (1,1630)              24.995605     
    1531    (1,1631)              25.030273     
    1532    (1,1632)              24.995605     
    1533    (1,1633)              24.996338     
    1534    (1,1634)              24.995361     
    1535    (1,1635)              24.996338     
    1536    (1,1636)              25.030518     
    1537    (1,1637)              24.995605     
    1538    (1,1638)              24.994629     
    1539    (1,1639)              24.996094     
    1540    (1,1640)              24.996338     
    1541    (1,1641)              24.996582     
    1542    (1,1642)              24.995605     
    1543    (1,1643)              24.996582     
    1544    (1,1644)              24.996094     
    1545    (1,1645)              24.995850     
    1546    (1,1646)              24.995605     
    1547    (1,1647)              24.999268     
    1548    (1,1648)              24.999023     
    1549    (1,1649)              24.995605     
    1550    (1,1650)              25.030762     
    1551    (1,1651)              24.994629     
    1552    (1,1652)              24.996826     
    1553    (1,1653)              25.030762     
    1554    (1,1654)              24.995117     
    1555    (1,1655)              24.996094     
    1556    (1,1656)              24.996582     
    1557    (1,1657)              24.996338     
    1558    (1,1658)              24.995605     
    1559    (1,1659)              24.996094     
    1560    (1,1660)              24.995117     
    1561    (1,1661)              24.996338     
    1562    (1,1662)              99.947510     
    1563    (1,1663)              100.05469     
    1564    (1,1664)              100.05420     
    1565    (1,1665)              99.990479     
    1566    (1,1666)              99.991455     
    1567    (1,1667)              99.983643     
    1568    (1,1668)              99.983887     
    1569    (1,1669)              99.983887     
    1570    (1,1670)              99.983154     
    1571    (1,1671)              99.983887     
    1572    (1,1672)              100.05396     
    1573    (1,1673)              100.05469     
    1574    (1,1674)              99.983398     
    1575    (1,1675)              99.983643     
    1576    (1,1676)              99.983643     
    1577    (1,1677)              99.983398     
    1578    (1,1678)              99.984619     
    1579    (1,1679)              99.990234     
    1580    (1,1680)              99.991943     
    1581    (1,1681)              99.983887     
    1582    (1,1682)              100.05396     
    1583    (1,1683)              100.05420     
    1592    (1,1694)              99.983643     
    1593    (1,1695)              99.985107     
    1594    (1,1696)              99.984619     
    1595    (1,1697)              99.984375     
    1596    (1,1698)              99.984619     
    1597    (1,1699)              100.05493     
    1598    (1,1700)              100.05420     
    1599    (1,1701)              99.983887     
    1600    (1,1702)              99.985352     
    1601    (1,1703)              99.984619     
    1602    (1,1704)              99.983887     
    1603    (1,1705)              99.983887     
    1604    (1,1706)              99.991455     
    1605    (1,1707)              99.990479     
    1606    (1,1708)              100.05469     
    1607    (1,1709)              100.05469     
    1608    (1,1710)              99.984619     
    1609    (1,1711)              99.983887     
    1610    (1,1712)              99.984131     
    1611    (1,1713)              99.984619     
    1612    (1,1714)              99.983887     
    1613    (1,1715)              99.983398     
    1614    (1,1716)              99.983887     
    1615    (1,1717)              100.05469     
    1616    (1,1718)              100.05396     
    1617    (1,1719)              99.983643     
    1618    (1,1720)              99.983887     
    1619    (1,1721)              99.970703     
    1620    (1,1722)              99.973877     
    1621    (1,1723)              100.00269     
    1622    (1,1724)              100.00488     
    1623    (1,1725)              100.00317     
    1624    (1,1726)              100.00317     
    1625    (1,1727)              100.05591     
    1626    (1,1728)              100.03931     
    1627    (1,1729)              99.968994     
    1628    (1,1730)              99.946777     
    1629    (1,1731)              24.996094     
    1630    (1,1732)              24.996094     
    1631    (1,1733)              24.997070     
    1632    (1,1734)              24.995605     
    1633    (1,1735)              25.030518     
    1634    (1,1736)              24.996094     
    1635    (1,1737)              24.996094     
    1636    (1,1738)              25.031250     
    1637    (1,1739)              24.994629     
    1638    (1,1740)              24.995361     
    1639    (1,1741)              24.996094     
    1640    (1,1742)              24.996338     
    1641    (1,1743)              24.996826     
    1642    (1,1744)              24.996826     
    1643    (1,1745)              24.995605     
    1644    (1,1746)              24.996582     
    1645    (1,1747)              99.963623     
    1646    (1,1748)              100.06201     
    1647    (1,1749)              100.06201     
    1648    (1,1750)              99.984131     
    1649    (1,1751)              99.984131     
    1650    (1,1752)              99.985352     
    1651    (1,1753)              99.984619     
    1652    (1,1754)              99.984131     
    1653    (1,1755)              99.983643     
    1654    (1,1756)              99.984375     
    1655    (1,1757)              100.05469     
    1656    (1,1758)              100.05542     
    1657    (1,1759)              99.984131     
    1658    (1,1760)              99.983887     
    1659    (1,1761)              99.984863     
    1660    (1,1762)              99.990967     
    1661    (1,1763)              99.991211     
    1662    (1,1764)              99.984619     
    1663    (1,1765)              99.984131     
    1664    (1,1766)              99.984619     
    1665    (1,1767)              100.05518     
    1674    (1,1778)              99.984131     
    1675    (1,1779)              99.984863     
    1676    (1,1780)              99.983398     
    1677    (1,1781)              99.983154     
    1678    (1,1782)              99.984375     
    1679    (1,1783)              100.05518     
    1680    (1,1784)              100.05420     
    1681    (1,1785)              99.983643     
    1682    (1,1786)              99.983643     
    1683    (1,1787)              99.982910     
    1684    (1,1788)              99.990723     
    1685    (1,1789)              99.991455     
    1686    (1,1790)              99.983887     
    1687    (1,1791)              99.983887     
    1688    (1,1792)              100.05347     
    1689    (1,1793)              100.05542     
    1690    (1,1794)              99.984131     
    1691    (1,1795)              99.983643     
    1692    (1,1796)              99.984619     
    1693    (1,1797)              99.984375     
    1694    (1,1798)              99.985107     
    1695    (1,1799)              99.984619     
    1696    (1,1800)              99.984131     
    1697    (1,1801)              100.05322     
    1698    (1,1802)              100.05469     
    1699    (1,1803)              99.989258     
    1700    (1,1804)              99.990967     
    1701    (1,1805)              99.983643     
    1702    (1,1806)              99.984863     
    1703    (1,1807)              99.984375     
    1704    (1,1808)              99.983154     
    1705    (1,1809)              99.983398     
    1706    (1,1810)              99.983398     
    1707    (1,1811)              100.05420     
    1708    (1,1812)              100.05420     
    1709    (1,1813)              99.983887     
    1710    (1,1814)              99.964111     
    1711    (1,1815)              99.969482     
    1712    (1,1816)              25.030518     
    1713    (1,1817)              24.996338     
    1714    (1,1818)              24.996338     
    1715    (1,1819)              25.031494     
    1716    (1,1820)              24.995361     
    1717    (1,1821)              24.995850     
    1718    (1,1822)              24.995361     
    1719    (1,1823)              24.995605     
    1720    (1,1824)              99.971680     
    1721    (1,1825)              99.990967     
    1722    (1,1826)              100.05591     
    1723    (1,1827)              100.05420     
    1724    (1,1828)              99.983154     
    1725    (1,1829)              99.984375     
    1726    (1,1830)              99.984619     
    1727    (1,1831)              99.982422     
    1728    (1,1832)              99.983154     
    1729    (1,1833)              99.983887     
    1730    (1,1834)              99.983643     
    1731    (1,1835)              100.05444     
    1732    (1,1836)              100.05444     
    1733    (1,1837)              99.983887     
    1734    (1,1838)              99.991455     
    1735    (1,1839)              99.989990     
    1736    (1,1840)              99.984131     
    1737    (1,1841)              99.984375     
    1738    (1,1842)              99.984619     
    1739    (1,1843)              99.983887     
    1740    (1,1844)              99.984375     
    1749    (1,1855)              99.983154     
    1750    (1,1856)              99.983154     
    1751    (1,1857)              99.983887     
    1752    (1,1858)              99.984375     
    1753    (1,1859)              99.983643     
    1754    (1,1860)              100.05444     
    1755    (1,1861)              100.05444     
    1756    (1,1862)              99.983887     
    1757    (1,1863)              99.990234     
    1758    (1,1864)              99.991211     
    1759    (1,1865)              99.984131     
    1760    (1,1866)              99.984131     
    1761    (1,1867)              99.984375     
    1762    (1,1868)              99.984131     
    1763    (1,1869)              100.05444     
    1764    (1,1870)              100.05371     
    1765    (1,1871)              99.984375     
    1766    (1,1872)              99.984863     
    1767    (1,1873)              99.983398     
    1768    (1,1874)              99.983154     
    1769    (1,1875)              99.984375     
    1770    (1,1876)              99.983887     
    1771    (1,1877)              99.984375     
    1772    (1,1878)              100.06030     
    1773    (1,1879)              100.06055     
    1774    (1,1880)              99.984131     
    1775    (1,1881)              99.984619     
    1776    (1,1882)              99.984131     
    1777    (1,1883)              99.983398     
    1778    (1,1884)              99.983887     
    1779    (1,1885)              99.983643     
    1780    (1,1886)              99.984375     
    1781    (1,1887)              99.983398     
    1782    (1,1888)              100.05542     
    1783    (1,1889)              100.05493     
    1784    (1,1890)              99.967529     
    1785    (1,1891)              24.994873     
    1786    (1,1892)              24.995117     
    1787    (1,1893)              24.995361     
    1788    (1,1894)              24.995850     
    1789    (1,1895)              24.995850     
    1790    (1,1896)              24.996094     
    1791    (1,1897)              24.996338     
    1792    (1,1898)              24.996094     
    1793    (1,1899)              100.02222     
    1794    (1,1900)              99.990479     
    1795    (1,1901)              99.983398     
    1796    (1,1902)              99.983398     
    1797    (1,1903)              100.05469     
    1798    (1,1904)              100.05518     
    1799    (1,1905)              99.984131     
    1800    (1,1906)              99.984863     
    1801    (1,1907)              99.984863     
    1802    (1,1908)              99.985107     
    1803    (1,1909)              99.984375     
    1804    (1,1910)              99.984619     
    1805    (1,1911)              99.982910     
    1806    (1,1912)              100.05371     
    1807    (1,1913)              100.06152     
    1808    (1,1914)              99.990967     
    1809    (1,1915)              99.984131     
    1810    (1,1916)              99.984131     
    1811    (1,1917)              99.984131     
    1812    (1,1918)              99.984619     
    1813    (1,1919)              99.984131     
    1814    (1,1920)              99.984131     
    1823    (1,1931)              99.983887     
    1824    (1,1932)              99.983887     
    1825    (1,1933)              99.983643     
    1826    (1,1934)              99.982910     
    1827    (1,1935)              99.984619     
    1828    (1,1936)              100.05566     
    1829    (1,1937)              100.06226     
    1830    (1,1938)              99.991455     
    1831    (1,1939)              99.984131     
    1832    (1,1940)              99.983887     
    1833    (1,1941)              99.983887     
    1834    (1,1942)              99.983398     
    1835    (1,1943)              99.983398     
    1836    (1,1944)              99.984863     
    1837    (1,1945)              100.05493     
    1838    (1,1946)              100.05469     
    1839    (1,1947)              99.982666     
    1840    (1,1948)              99.983887     
    1841    (1,1949)              99.984619     
    1842    (1,1950)              99.983398     
    1843    (1,1951)              99.985107     
    1844    (1,1952)              99.991211     
    1845    (1,1953)              99.991943     
    1846    (1,1954)              100.05493     
    1847    (1,1955)              100.05566     
    1848    (1,1956)              99.984131     
    1849    (1,1957)              99.983887     
    1850    (1,1958)              99.983154     
    1851    (1,1959)              99.984375     
    1852    (1,1960)              99.983887     
    1853    (1,1961)              99.985107     
    1854    (1,1962)              99.984619     
    1855    (1,1963)              99.983887     
    1856    (1,1964)              100.05469     
    1857    (1,1965)              100.03809     
    1858    (1,1966)              24.996826     
    1859    (1,1967)              24.996094     
    1860    (1,1968)              24.996338     
    1861    (1,1969)              24.996094     
    1862    (1,1970)              24.995850     
    1863    (1,1971)              24.996094     
    1864    (1,1972)              24.996094     
    1865    (1,1973)              24.999512     
    1866    (1,1974)              100.00830     
    1867    (1,1975)              99.984619     
    1868    (1,1976)              99.983154     
    1869    (1,1977)              99.985107     
    1870    (1,1978)              99.983887     
    1871    (1,1979)              100.05444     
    1872    (1,1980)              100.05518     
    1873    (1,1981)              99.985107     
    1874    (1,1982)              99.983398     
    1875    (1,1983)              99.984863     
    1876    (1,1984)              99.983887     
    1877    (1,1985)              99.982666     
    1878    (1,1986)              99.983398     
    1879    (1,1987)              99.990479     
    1880    (1,1988)              100.06226     
    1881    (1,1989)              100.05493     
    1882    (1,1990)              99.984131     
    1883    (1,1991)              99.984131     
    1884    (1,1992)              99.983887     
    1885    (1,1993)              99.984131     
    1886    (1,1994)              99.984619     
    1887    (1,1995)              99.984131     
    1888    (1,1996)              99.983398     
    1896    (1,2006)              99.982910     
    1897    (1,2007)              99.984131     
    1898    (1,2008)              99.983887     
    1899    (1,2009)              99.983887     
    1900    (1,2010)              99.990723     
    1901    (1,2011)              100.06226     
    1902    (1,2012)              100.05469     
    1903    (1,2013)              99.983643     
    1904    (1,2014)              99.983398     
    1905    (1,2015)              99.984619     
    1906    (1,2016)              99.984863     
    1907    (1,2017)              99.984131     
    1908    (1,2018)              99.984619     
    1909    (1,2019)              99.983398     
    1910    (1,2020)              100.05518     
    1911    (1,2021)              100.05444     
    1912    (1,2022)              99.983887     
    1913    (1,2023)              99.984375     
    1914    (1,2024)              99.983887     
    1915    (1,2025)              99.992432     
    1916    (1,2026)              99.990723     
    1917    (1,2027)              99.984131     
    1918    (1,2028)              99.984863     
    1919    (1,2029)              100.05493     
    1920    (1,2030)              100.05566     
    1921    (1,2031)              99.983887     
    1922    (1,2032)              99.983643     
    1923    (1,2033)              99.983643     
    1924    (1,2034)              99.984863     
    1925    (1,2035)              99.983398     
    1926    (1,2036)              99.983398     
    1927    (1,2037)              99.983887     
    1928    (1,2038)              99.984131     
    1929    (1,2039)              100.05444     
    1930    (1,2040)              100.02686     
    1931    (1,2041)              25.000000     
    1932    (1,2042)              24.995361     
    1933    (1,2043)              24.996826     
    1934    (1,2044)              24.996338     
    1935    (1,2045)              100.00269     
    1936    (1,2046)              99.984863     
    1937    (1,2047)              99.984375     
    1938    (1,2048)              99.984131     
    1939    (1,2049)              99.983887     
    1940    (1,2050)              99.985107     
    1941    (1,2051)              100.05469     
    1942    (1,2052)              100.05420     
    1943    (1,2053)              99.984131     
    1944    (1,2054)              99.984131     
    1945    (1,2055)              99.985107     
    1946    (1,2056)              99.984863     
    1947    (1,2057)              99.991699     
    1948    (1,2058)              99.991943     
    1949    (1,2059)              99.984131     
    1950    (1,2060)              100.05591     
    1951    (1,2061)              100.05469     
    1952    (1,2062)              99.984375     
    1953    (1,2063)              99.983887     
    1954    (1,2064)              99.984375     
    1955    (1,2065)              99.983643     
    1956    (1,2066)              99.984131     
    1957    (1,2067)              99.983398     
    1965    (1,2077)              99.984863     
    1966    (1,2078)              99.983398     
    1967    (1,2079)              99.990967     
    1968    (1,2080)              99.989990     
    1969    (1,2081)              99.984619     
    1970    (1,2082)              100.05493     
    1971    (1,2083)              100.05493     
    1972    (1,2084)              99.983398     
    1973    (1,2085)              99.983643     
    1974    (1,2086)              99.984375     
    1975    (1,2087)              99.983643     
    1976    (1,2088)              99.984375     
    1977    (1,2089)              99.983887     
    1978    (1,2090)              99.984619     
    1979    (1,2091)              100.05444     
    1980    (1,2092)              100.05396     
    1981    (1,2093)              99.983154     
    1982    (1,2094)              99.991943     
    1983    (1,2095)              99.991455     
    1984    (1,2096)              99.983398     
    1985    (1,2097)              99.984863     
    1986    (1,2098)              99.983887     
    1987    (1,2099)              99.984375     
    1988    (1,2100)              100.05518     
    1989    (1,2101)              100.05591     
    1990    (1,2102)              99.982910     
    1991    (1,2103)              99.983398     
    1992    (1,2104)              99.984131     
    1993    (1,2105)              99.983887     
    1994    (1,2106)              99.983154     
    1995    (1,2107)              99.984619     
    1996    (1,2108)              99.983398     
    1997    (1,2109)              99.990967     
    1998    (1,2110)              100.05957     
    1999    (1,2111)              24.995850     
    2000    (1,2112)              24.997070     
    2001    (1,2113)              25.031738     
    2002    (1,2114)              24.995850     
    2003    (1,2115)              100.00366     
    2004    (1,2116)              99.984863     
    2005    (1,2117)              99.985107     
    2006    (1,2118)              99.984131     
    2007    (1,2119)              99.984619     
    2008    (1,2120)              99.984375     
    2009    (1,2121)              99.982910     
    2010    (1,2122)              100.05469     
    2011    (1,2123)              100.05347     
    2012    (1,2124)              99.984863     
    2013    (1,2125)              99.983887     
    2014    (1,2126)              99.991455     
    2015    (1,2127)              99.991699     
    2016    (1,2128)              99.983643     
    2017    (1,2129)              99.985107     
    2018    (1,2130)              99.984375     
    2019    (1,2131)              100.05566     
    2020    (1,2132)              100.05469     
    2021    (1,2133)              99.983643     
    2022    (1,2134)              99.984375     
    2023    (1,2135)              99.983887     
    2024    (1,2136)              99.984131     
    2025    (1,2137)              99.983887     
    2033    (1,2147)              99.991211     
    2034    (1,2148)              99.991211     
    2035    (1,2149)              99.983643     
    2036    (1,2150)              99.984619     
    2037    (1,2151)              99.983398     
    2038    (1,2152)              100.05371     
    2039    (1,2153)              100.05518     
    2040    (1,2154)              99.983643     
    2041    (1,2155)              99.983643     
    2042    (1,2156)              99.983398     
    2043    (1,2157)              99.983887     
    2044    (1,2158)              99.983887     
    2045    (1,2159)              99.983643     
    2046    (1,2160)              99.984619     
    2047    (1,2161)              100.05420     
    2048    (1,2162)              100.06201     
    2049    (1,2163)              99.991211     
    2050    (1,2164)              99.984131     
    2051    (1,2165)              99.984863     
    2052    (1,2166)              99.984375     
    2053    (1,2167)              99.984131     
    2054    (1,2168)              99.985107     
    2055    (1,2169)              99.984619     
    2056    (1,2170)              100.05518     
    2057    (1,2171)              100.05420     
    2058    (1,2172)              99.983154     
    2059    (1,2173)              99.984131     
    2060    (1,2174)              99.983887     
    2061    (1,2175)              99.983398     
    2062    (1,2176)              99.983154     
    2063    (1,2177)              99.990479     
    2064    (1,2178)              99.991455     
    2065    (1,2179)              99.999756     
    2066    (1,2180)              24.996094     
    2067    (1,2181)              25.031738     
    2068    (1,2182)              24.995605     
    2069    (1,2183)              24.996094     
    2070    (1,2184)              100.05566     
    2071    (1,2185)              99.983887     
    2072    (1,2186)              99.984131     
    2073    (1,2187)              99.983398     
    2074    (1,2188)              99.984619     
    2075    (1,2189)              99.984863     
    2076    (1,2190)              99.984131     
    2077    (1,2191)              99.984619     
    2078    (1,2192)              100.05396     
    2079    (1,2193)              100.05615     
    2080    (1,2194)              99.990967     
    2081    (1,2195)              99.989990     
    2082    (1,2196)              99.984131     
    2083    (1,2197)              99.984375     
    2084    (1,2198)              99.984375     
    2085    (1,2199)              99.983887     
    2086    (1,2200)              99.983887     
    2087    (1,2201)              100.05493     
    2088    (1,2202)              100.05640     
    2089    (1,2203)              100.00366     
    2090    (1,2204)              100.00415     
    2091    (1,2205)              100.00317     
    2092    (1,2206)              100.00415     
    2100    (1,2216)              99.984863     
    2101    (1,2217)              99.984131     
    2102    (1,2218)              99.983643     
    2103    (1,2219)              99.984863     
    2104    (1,2220)              99.984375     
    2105    (1,2221)              100.05396     
    2106    (1,2222)              100.05493     
    2107    (1,2223)              99.983887     
    2108    (1,2224)              99.984375     
    2109    (1,2225)              99.984619     
    2110    (1,2226)              99.983643     
    2111    (1,2227)              99.984375     
    2112    (1,2228)              99.984375     
    2113    (1,2229)              99.990967     
    2114    (1,2230)              100.06128     
    2115    (1,2231)              100.05518     
    2116    (1,2232)              99.984375     
    2117    (1,2233)              99.984863     
    2118    (1,2234)              99.984375     
    2119    (1,2235)              99.983643     
    2120    (1,2236)              99.985352     
    2121    (1,2237)              99.984619     
    2122    (1,2238)              99.983887     
    2123    (1,2239)              100.05542     
    2124    (1,2240)              100.05493     
    2125    (1,2241)              99.984619     
    2126    (1,2242)              99.984375     
    2127    (1,2243)              99.985107     
    2128    (1,2244)              99.992188     
    2129    (1,2245)              99.990967     
    2130    (1,2246)              99.984375     
    2131    (1,2247)              99.999756     
    2132    (1,2248)              24.995361     
    2133    (1,2249)              24.995850     
    2134    (1,2250)              24.997070     
    2135    (1,2251)              24.995850     
    2136    (1,2252)              100.03833     
    2137    (1,2253)              100.05396     
    2138    (1,2254)              99.984131     
    2139    (1,2255)              99.983887     
    2140    (1,2256)              99.984619     
    2141    (1,2257)              99.984619     
    2142    (1,2258)              99.985107     
    2143    (1,2259)              99.985352     
    2144    (1,2260)              99.984375     
    2145    (1,2261)              100.06128     
    2146    (1,2262)              100.06152     
    2147    (1,2263)              99.984375     
    2148    (1,2264)              99.984131     
    2149    (1,2265)              99.984375     
    2150    (1,2266)              100.00073     
    2151    (1,2267)              99.965088     
    2152    (1,2268)              99.965088     
    2153    (1,2269)              99.988525     
    2154    (1,2270)              24.996338     
    2155    (1,2271)              25.031982     
    2156    (1,2272)              24.996338     
    2157    (1,2273)              24.996338     
    2158    (1,2274)              24.996094     
    2159    (1,2275)              24.996338     
    2160    (1,2276)              25.031738     
    2161    (1,2277)              24.996826     
    2162    (1,2278)              24.994873     
    2163    (1,2279)              24.995117     
    2164    (1,2280)              24.995117     
    2165    (1,2281)              24.997070     
    2166    (1,2282)              24.996094     
    2167    (1,2283)              24.995605     
    2168    (1,2284)              24.995361     
    2169    (1,2285)              24.995605     
    2193    (1,2311)              99.983887     
    2194    (1,2312)              99.983398     
    2195    (1,2313)              99.983887     
    2196    (1,2314)              99.983154     
    2197    (1,2315)              99.983643     
    2198    (1,2316)              100.05420     
    2199    (1,2317)              100.05371     
    2200    (1,2318)              99.983643     
    2201    (1,2319)              99.983643     
    2202    (1,2320)              99.982910     
    2203    (1,2321)              99.983887     
    2204    (1,2322)              99.992188     
    2205    (1,2323)              99.991455     
    2206    (1,2324)              99.984863     
    2207    (1,2325)              100.05493     
    2208    (1,2326)              100.05518     
    2209    (1,2327)              99.985107     
    2210    (1,2328)              99.984375     
    2211    (1,2329)              99.984619     
    2212    (1,2330)              99.984375     
    2213    (1,2331)              99.983154     
    2214    (1,2332)              99.984375     
    2215    (1,2333)              99.983398     
    2216    (1,2334)              100.05420     
    2217    (1,2335)              100.05469     
    2218    (1,2336)              99.984375     
    2219    (1,2337)              99.990723     
    2220    (1,2338)              99.990234     
    2221    (1,2339)              99.984131     
    2222    (1,2340)              99.984131     
    2223    (1,2341)              99.979248     
    2224    (1,2342)              24.996582     
    2225    (1,2343)              24.995117     
    2226    (1,2344)              24.996582     
    2227    (1,2345)              24.995605     
    2228    (1,2346)              99.968262     
    2229    (1,2347)              100.05469     
    2230    (1,2348)              100.05444     
    2231    (1,2349)              99.983887     
    2232    (1,2350)              99.984131     
    2233    (1,2351)              99.984863     
    2234    (1,2352)              99.983887     
    2235    (1,2353)              99.984863     
    2236    (1,2354)              99.991455     
    2237    (1,2355)              99.990967     
    2238    (1,2356)              100.05444     
    2239    (1,2357)              100.05420     
    2240    (1,2358)              100.00000     
    2241    (1,2359)              99.980957     
    2242    (1,2360)              24.995850     
    2243    (1,2361)              24.996338     
    2244    (1,2362)              24.996094     
    2245    (1,2363)              24.995605     
    2246    (1,2364)              25.031494     
    2247    (1,2365)              24.996094     
    2248    (1,2366)              24.996582     
    2249    (1,2367)              25.031250     
    2250    (1,2368)              24.995850     
    2251    (1,2369)              24.999512     
    2252    (1,2370)              24.999512     
    2253    (1,2371)              24.996094     
    2254    (1,2372)              24.995605     
    2255    (1,2373)              24.996094     
    2256    (1,2374)              24.995605     
    2257    (1,2375)              24.996094     
    2258    (1,2376)              24.995850     
    2259    (1,2377)              24.996582     
    2260    (1,2378)              24.995605     
    2261    (1,2379)              24.996094     
    2262    (1,2380)              100.03442     
    2263    (1,2381)              100.03589     
    2285    (1,2405)              99.983398     
    2286    (1,2406)              99.984131     
    2287    (1,2407)              99.984375     
    2288    (1,2408)              99.984375     
    2289    (1,2409)              99.983887     
    2290    (1,2410)              100.05518     
    2291    (1,2411)              100.05322     
    2292    (1,2412)              99.983887     
    2293    (1,2413)              99.983398     
    2294    (1,2414)              99.990234     
    2295    (1,2415)              99.991455     
    2296    (1,2416)              99.983643     
    2297    (1,2417)              99.984375     
    2298    (1,2418)              99.984863     
    2299    (1,2419)              100.05518     
    2300    (1,2420)              100.05396     
    2301    (1,2421)              99.983398     
    2302    (1,2422)              99.984375     
    2303    (1,2423)              99.984863     
    2304    (1,2424)              99.984131     
    2305    (1,2425)              99.985352     
    2306    (1,2426)              99.984619     
    2307    (1,2427)              99.984375     
    2308    (1,2428)              100.05542     
    2309    (1,2429)              100.06201     
    2310    (1,2430)              99.990967     
    2311    (1,2431)              99.983154     
    2312    (1,2432)              99.984375     
    2313    (1,2433)              99.964600     
    2314    (1,2434)              25.031494     
    2315    (1,2435)              24.995117     
    2316    (1,2436)              24.995850     
    2317    (1,2437)              25.030518     
    2318    (1,2438)              24.996826     
    2319    (1,2439)              24.995117     
    2320    (1,2440)              24.996582     
    2321    (1,2441)              24.996094     
    2322    (1,2442)              99.968994     
    2323    (1,2443)              99.983398     
    2324    (1,2444)              100.05542     
    2325    (1,2445)              100.05566     
    2326    (1,2446)              99.984131     
    2327    (1,2447)              99.983887     
    2328    (1,2448)              99.983887     
    2329    (1,2449)              99.990967     
    2330    (1,2450)              99.990967     
    2331    (1,2451)              99.984375     
    2332    (1,2452)              99.984619     
    2333    (1,2453)              100.03223     
    2334    (1,2454)              24.995850     
    2335    (1,2455)              24.995605     
    2336    (1,2456)              25.031738     
    2337    (1,2457)              24.995605     
    2338    (1,2458)              24.996826     
    2339    (1,2459)              24.995605     
    2340    (1,2460)              24.995361     
    2341    (1,2461)              24.997070     
    2342    (1,2462)              24.995605     
    2343    (1,2463)              24.996094     
    2344    (1,2464)              24.996338     
    2345    (1,2465)              24.995850     
    2346    (1,2466)              99.987305     
    2347    (1,2467)              100.00073     
    2348    (1,2468)              100.00024     
    2349    (1,2469)              100.00073     
    2350    (1,2470)              99.983398     
    2351    (1,2471)              100.05469     
    2367    (1,2489)              99.984131     
    2368    (1,2490)              99.983887     
    2369    (1,2491)              99.983643     
    2370    (1,2492)              99.984375     
    2371    (1,2493)              99.984131     
    2372    (1,2494)              100.05444     
    2373    (1,2495)              100.05347     
    2374    (1,2496)              99.991211     
    2375    (1,2497)              99.990479     
    2376    (1,2498)              99.984375     
    2377    (1,2499)              99.983643     
    2378    (1,2500)              99.984375     
    2379    (1,2501)              99.983887     
    2380    (1,2502)              99.984375     
    2381    (1,2503)              100.05542     
    2382    (1,2504)              100.05542     
    2383    (1,2505)              99.983643     
    2384    (1,2506)              99.984619     
    2385    (1,2507)              99.984619     
    2386    (1,2508)              99.984375     
    2387    (1,2509)              99.983643     
    2388    (1,2510)              99.982910     
    2389    (1,2511)              99.990479     
    2390    (1,2512)              100.06201     
    2391    (1,2513)              100.05469     
    2392    (1,2514)              99.984375     
    2393    (1,2515)              99.984375     
    2394    (1,2516)              99.965088     
    2395    (1,2517)              24.996826     
    2396    (1,2518)              24.997070     
    2397    (1,2519)              24.995850     
    2398    (1,2520)              24.995850     
    2399    (1,2521)              100.04102     
    2400    (1,2522)              99.984375     
    2401    (1,2523)              99.983887     
    2402    (1,2524)              99.983643     
    2403    (1,2525)              100.05566     
    2404    (1,2526)              100.05444     
    2405    (1,2527)              99.984375     
    2406    (1,2528)              99.990723     
    2407    (1,2529)              99.991699     
    2408    (1,2530)              99.984619     
    2409    (1,2531)              99.984131     
    2410    (1,2532)              100.00122     
    2411    (1,2533)              24.997314     
    2412    (1,2534)              24.995361     
    2413    (1,2535)              24.996094     
    2414    (1,2536)              24.996582     
    2415    (1,2537)              24.995605     
    2416    (1,2538)              25.031250     
    2417    (1,2539)              24.996582     
    2418    (1,2540)              24.995117     
    2419    (1,2541)              100.04053     
    2420    (1,2542)              99.967773     
    2421    (1,2543)              99.983887     
    2422    (1,2544)              99.983887     
    2423    (1,2545)              99.984375     
    2424    (1,2546)              99.983643     
    2425    (1,2547)              99.982910     
    2442    (1,2567)              99.983398     
    2443    (1,2568)              99.983643     
    2444    (1,2569)              99.983887     
    2445    (1,2570)              99.984619     
    2446    (1,2571)              99.984375     
    2447    (1,2572)              100.06250     
    2448    (1,2573)              100.06201     
    2449    (1,2574)              99.983398     
    2450    (1,2575)              99.983398     
    2451    (1,2576)              99.983643     
    2452    (1,2577)              99.983887     
    2453    (1,2578)              99.983154     
    2454    (1,2579)              99.984131     
    2455    (1,2580)              99.983887     
    2456    (1,2581)              100.05469     
    2457    (1,2582)              100.05444     
    2458    (1,2583)              99.984375     
    2459    (1,2584)              99.983154     
    2460    (1,2585)              99.984619     
    2461    (1,2586)              99.984131     
    2462    (1,2587)              99.991211     
    2463    (1,2588)              99.991455     
    2464    (1,2589)              99.984131     
    2465    (1,2590)              100.05469     
    2466    (1,2591)              100.05469     
    2467    (1,2592)              99.983887     
    2468    (1,2593)              99.963379     
    2469    (1,2594)              24.996094     
    2470    (1,2595)              24.999756     
    2471    (1,2596)              24.999512     
    2472    (1,2597)              24.996826     
    2473    (1,2598)              24.996094     
    2474    (1,2599)              24.995361     
    2475    (1,2600)              24.995605     
    2476    (1,2601)              24.995117     
    2477    (1,2602)              100.00098     
    2478    (1,2603)              99.983887     
    2479    (1,2604)              99.983643     
    2480    (1,2605)              99.983887     
    2481    (1,2606)              100.05469     
    2482    (1,2607)              100.06152     
    2483    (1,2608)              99.989990     
    2484    (1,2609)              99.983643     
    2485    (1,2610)              99.984863     
    2486    (1,2611)              99.984131     
    2487    (1,2612)              99.979492     
    2488    (1,2613)              24.996338     
    2489    (1,2614)              24.996094     
    2490    (1,2615)              24.996582     
    2491    (1,2616)              24.995361     
    2492    (1,2617)              99.988770     
    2493    (1,2618)              100.05640     
    2494    (1,2619)              100.05444     
    2495    (1,2620)              99.983887     
    2496    (1,2621)              99.984131     
    2497    (1,2622)              99.984375     
    2498    (1,2623)              99.983887     
    2510    (1,2637)              99.984131     
    2511    (1,2638)              99.983643     
    2512    (1,2639)              99.983643     
    2513    (1,2640)              99.989746     
    2514    (1,2641)              99.991455     
    2515    (1,2642)              100.05322     
    2516    (1,2643)              100.05396     
    2517    (1,2644)              99.983154     
    2518    (1,2645)              99.983643     
    2519    (1,2646)              99.984131     
    2520    (1,2647)              99.984131     
    2521    (1,2648)              99.983643     
    2522    (1,2649)              99.983887     
    2523    (1,2650)              99.983643     
    2524    (1,2651)              100.05396     
    2525    (1,2652)              100.05444     
    2526    (1,2653)              99.985107     
    2527    (1,2654)              99.983887     
    2528    (1,2655)              99.991455     
    2529    (1,2656)              99.990479     
    2530    (1,2657)              99.984375     
    2531    (1,2658)              99.984131     
    2532    (1,2659)              99.984375     
    2533    (1,2660)              100.05322     
    2534    (1,2661)              100.05444     
    2535    (1,2662)              99.982666     
    2536    (1,2663)              99.948242     
    2537    (1,2664)              24.996094     
    2538    (1,2665)              24.996338     
    2539    (1,2666)              24.996582     
    2540    (1,2667)              24.995605     
    2541    (1,2668)              100.01758     
    2542    (1,2669)              99.982666     
    2543    (1,2670)              99.982422     
    2544    (1,2671)              99.983887     
    2545    (1,2672)              99.991699     
    2546    (1,2673)              100.06226     
    2547    (1,2674)              100.05103     
    2548    (1,2675)              100.00122     
    2549    (1,2676)              100.00073     
    2550    (1,2677)              99.979736     
    2551    (1,2678)              25.031982     
    2552    (1,2679)              24.996582     
    2553    (1,2680)              24.996094     
    2554    (1,2681)              25.030273     
    2555    (1,2682)              24.997070     
    2556    (1,2683)              24.996094     
    2557    (1,2684)              24.995117     
    2558    (1,2685)              24.996338     
    2559    (1,2686)              99.968262     
    2560    (1,2687)              99.984863     
    2561    (1,2688)              100.05396     
    2562    (1,2689)              100.05493     
    2563    (1,2690)              99.983887     
    2564    (1,2691)              99.984375     
    2577    (1,2706)              99.983154     
    2578    (1,2707)              99.990479     
    2579    (1,2708)              99.989502     
    2580    (1,2709)              99.984619     
    2581    (1,2710)              99.983154     
    2582    (1,2711)              100.05420     
    2583    (1,2712)              100.05420     
    2584    (1,2713)              99.983398     
    2585    (1,2714)              99.983643     
    2586    (1,2715)              99.984375     
    2587    (1,2716)              99.983887     
    2588    (1,2717)              99.983643     
    2589    (1,2718)              99.984131     
    2590    (1,2719)              99.984619     
    2591    (1,2720)              100.05518     
    2592    (1,2721)              100.05371     
    2593    (1,2722)              99.990967     
    2594    (1,2723)              99.991455     
    2595    (1,2724)              99.983643     
    2596    (1,2725)              99.983643     
    2597    (1,2726)              99.985107     
    2598    (1,2727)              99.983887     
    2599    (1,2728)              99.985107     
    2600    (1,2729)              100.05322     
    2601    (1,2730)              100.05444     
    2602    (1,2731)              99.968262     
    2603    (1,2732)              24.996094     
    2604    (1,2733)              24.996094     
    2605    (1,2734)              24.996094     
    2606    (1,2735)              24.995117     
    2607    (1,2736)              24.995361     
    2608    (1,2737)              24.996826     
    2609    (1,2738)              24.994873     
    2610    (1,2739)              24.995605     
    2611    (1,2740)              100.02026     
    2612    (1,2741)              99.983398     
    2613    (1,2742)              99.990479     
    2614    (1,2743)              99.972412     
    2615    (1,2744)              99.979980     
    2616    (1,2745)              24.996338     
    2617    (1,2746)              25.031494     
    2618    (1,2747)              24.996338     
    2619    (1,2748)              24.996582     
    2620    (1,2749)              24.994873     
    2621    (1,2750)              24.995117     
    2622    (1,2751)              25.030762     
    2623    (1,2752)              24.994629     
    2624    (1,2753)              24.996826     
    2625    (1,2754)              24.995850     
    2626    (1,2755)              24.995361     
    2627    (1,2756)              24.996826     
    2628    (1,2757)              24.995850     
    2629    (1,2758)              24.996826     
    2630    (1,2759)              24.995605     
    2631    (1,2760)              24.994873     
    2632    (1,2761)              24.995605     
    2633    (1,2762)              24.995117     
    2634    (1,2763)              24.995850     
    2635    (1,2764)              24.994629     
    2636    (1,2765)              100.02271     
    2637    (1,2766)              99.983398     
    2638    (1,2767)              99.984131     
    2639    (1,2768)              99.984619     
    2640    (1,2769)              100.05493     
    2641    (1,2770)              100.05444     
    2655    (1,2786)              99.990967     
    2656    (1,2787)              99.983643     
    2657    (1,2788)              99.984863     
    2658    (1,2789)              99.983887     
    2659    (1,2790)              99.983887     
    2660    (1,2791)              100.05493     
    2661    (1,2792)              100.05542     
    2662    (1,2793)              99.983643     
    2663    (1,2794)              99.985352     
    2664    (1,2795)              99.985596     
    2665    (1,2796)              99.984619     
    2666    (1,2797)              99.984131     
    2667    (1,2798)              99.983887     
    2668    (1,2799)              99.984619     
    2669    (1,2800)              100.06152     
    2670    (1,2801)              100.06250     
    2671    (1,2802)              99.983887     
    2672    (1,2803)              99.984375     
    2673    (1,2804)              99.984863     
    2674    (1,2805)              99.983887     
    2675    (1,2806)              99.984375     
    2676    (1,2807)              99.984619     
    2677    (1,2808)              99.984863     
    2678    (1,2809)              100.05542     
    2679    (1,2810)              100.05469     
    2680    (1,2811)              99.949463     
    2681    (1,2812)              24.996826     
    2682    (1,2813)              24.997070     
    2683    (1,2814)              24.994873     
    2684    (1,2815)              24.996338     
    2685    (1,2816)              24.995850     
    2686    (1,2817)              24.996826     
    2687    (1,2818)              24.995117     
    2688    (1,2819)              24.995361     
    2689    (1,2820)              100.02417     
    2690    (1,2821)              100.02271     
    2691    (1,2822)              24.996094     
    2692    (1,2823)              24.996338     
    2693    (1,2824)              24.994873     
    2694    (1,2825)              24.995117     
    2695    (1,2826)              24.996094     
    2696    (1,2827)              24.996582     
    2697    (1,2828)              24.995850     
    2698    (1,2829)              24.994873     
    2699    (1,2830)              24.996582     
    2700    (1,2831)              24.997070     
    2701    (1,2832)              24.995605     
    2702    (1,2833)              24.995850     
    2703    (1,2834)              100.04004     
    2704    (1,2835)              100.03979     
    2705    (1,2836)              99.967041     
    2706    (1,2837)              99.967041     
    2707    (1,2838)              99.982666     
    2708    (1,2839)              99.983887     
    2709    (1,2840)              99.982666     
    2710    (1,2841)              99.982422     
    2711    (1,2842)              99.983398     
    2724    (1,2857)              99.984131     
    2725    (1,2858)              99.984375     
    2726    (1,2859)              99.984131     
    2727    (1,2860)              99.983643     
    2728    (1,2861)              99.984131     
    2729    (1,2862)              100.05518     
    2730    (1,2863)              100.05518     
    2731    (1,2864)              99.983398     
    2732    (1,2865)              99.983643     
    2733    (1,2866)              99.982910     
    2734    (1,2867)              99.983643     
    2735    (1,2868)              99.982910     
    2736    (1,2869)              99.991211     
    2737    (1,2870)              99.990479     
    2738    (1,2871)              100.05493     
    2740    (1,2873)              99.984131     
    2741    (1,2874)              99.984131     
    2742    (1,2875)              99.983643     
    2743    (1,2876)              99.985107     
    2744    (1,2877)              99.985107     
    2745    (1,2878)              99.985596     
    2746    (1,2879)              99.983643     
    2747    (1,2880)              100.05469     
    2748    (1,2881)              100.05518     
    2749    (1,2882)              99.947266     
    2750    (1,2883)              24.995850     
    2751    (1,2884)              24.995850     
    2752    (1,2885)              24.995605     
    2753    (1,2886)              25.000244     
    2754    (1,2887)              25.000244     
    2755    (1,2888)              24.996338     
    2756    (1,2889)              24.995361     
    2757    (1,2890)              24.995117     
    2758    (1,2891)              24.995850     
    2759    (1,2892)              24.996338     
    2760    (1,2893)              24.995361     
    2761    (1,2894)              24.994873     
    2762    (1,2895)              25.032471     
    2763    (1,2896)              24.996826     
    2764    (1,2897)              24.995605     
    2765    (1,2898)              25.031006     
    2766    (1,2899)              99.988281     
    2767    (1,2900)              100.00342     
    2768    (1,2901)              99.983887     
    2769    (1,2902)              100.05371     
    2770    (1,2903)              100.05371     
    2771    (1,2904)              99.984375     
    2772    (1,2905)              99.983887     
    2773    (1,2906)              99.983887     
    2774    (1,2907)              99.984131     
    2787    (1,2922)              99.985352     
    2788    (1,2923)              99.983643     
    2789    (1,2924)              99.982910     
    2790    (1,2925)              99.983398     
    2791    (1,2926)              99.983398     
    2792    (1,2927)              100.05493     
    2793    (1,2928)              100.05420     
    2794    (1,2929)              99.983643     
    2795    (1,2930)              99.983398     
    2796    (1,2931)              99.983643     
    2797    (1,2932)              99.991943     
    2806    (1,2941)              99.983154     
    2807    (1,2942)              99.983643     
    2808    (1,2943)              99.983643     
    2809    (1,2944)              99.983154     
    2810    (1,2945)              100.05493     
    2811    (1,2946)              100.06250     
    2812    (1,2947)              99.972412     
    2813    (1,2948)              99.968994     
    2814    (1,2949)              99.968262     
    2815    (1,2950)              99.968262     
    2816    (1,2951)              99.983643     
    2817    (1,2952)              99.984131     
    2818    (1,2953)              99.984131     
    2819    (1,2954)              99.984619     
    2820    (1,2955)              100.05518     
    2821    (1,2956)              100.05518     
    2822    (1,2957)              99.984619     
    2823    (1,2958)              99.983643     
    2824    (1,2959)              99.985107     
    2835    (1,2972)              99.984131     
    2836    (1,2973)              99.983887     
    2837    (1,2974)              99.985107     
    2838    (1,2975)              99.984619     
    2839    (1,2976)              99.983643     
    2840    (1,2977)              100.05444     
    2841    (1,2978)              100.05469     
    2842    (1,2979)              99.983887     
    2855    (1,2992)              99.983398     
    2856    (1,2993)              99.985352     
    2857    (1,2994)              99.991211     
    2858    (1,2995)              100.06201     
    2859    (1,2996)              100.05469     
    2860    (1,2997)              99.983398     
    2861    (1,2998)              99.983887     
    2862    (1,2999)              99.984619     
    2863    (1,3000)              99.984375     
    2864    (1,3001)              99.983643     
    2865    (1,3002)              99.984375     
    2866    (1,3003)              99.983887     
    2867    (1,3004)              99.983398     
    2868    (1,3005)              100.05347     
    2878    (1,3019)              99.984863     
    2879    (1,3020)              99.983887     
    2880    (1,3021)              99.984863     
    2881    (1,3022)              99.983643     
    2882    (1,3023)              99.983887     
    2883    (1,3024)              100.05469     
    2914    (1,3062)              99.983643     
    2915    (1,3063)              99.983643     
    2916    (1,3064)              99.983887     
    2917    (1,3065)              99.983398     
    2918    (1,3066)              99.991943     
    2930    (1,3098)              99.984863     
    2931    (1,3099)              99.984863     
    2932    (1,3100)              99.991943     
    2944    (1,3113)              99.984131     
    2945    (1,3114)              99.990723     
    2946    (1,3115)              99.990967     
 -----------------------------------------------



 UBDSV06 SAVING              SFR IN MODEL EXPERIMENTAL     PACKAGE EXPERIMENTAL    CONNECTED TO MODEL EXPERIMENTAL     PACKAGE SFR              ON UNIT   1019 AT TIME STEP     48, STRESS PERIOD      2

 SFR PACKAGE (SFR) FLOW RATES   PERIOD      2   STEP       48
 -----------------------------------------------
   NUMBER   CELLID                    RATE      
 -----------------------------------------------
     1      (2,2565)              0.0000000     
     2      (2,2563)             -4.1613717     
     3      (2,2561)             -38.281169     
     4      (2,2560)             -32.893760     
     5      (2,2557)             -10.562510     
     6      (2,2485)             -28.841461     
     7      (2,2484)             -31.818820     
     8      (2,2481)             -5.3987472     
     9      (2,2479)             -66.518156     
     10     (2,2478)             -37.373819     
     11     (2,2399)             -39.692835     
     12     (2,2396)             -22.424399     
     13     (2,2394)             -100.68511     
     14     (2,2393)             -8.8666694     
     15     (2,2304)             -180.68489     
     16     (2,2301)             -154.46558     
     17     (2,2300)             -18.463070     
     18     (2,2389)             -74.251544     
     19     (2,2386)             -107.92851     
     20     (2,2385)             -45.030115     
     21     (2,2296)             -131.16221     
     22     (2,2293)             -156.29375     
     23     (2,2292)             -152.43307     
     24     (2,2289)             -185.66202     
     25     (2,2288)             -56.325239     
     26     (2,2286)             -352.78920     
     27     (1,2283)             -513.94558     
     28     (1,2282)             -516.99956     
     29     (1,2279)             -546.57837     
     30     (1,2278)             -591.90225     
     31     (1,2275)             -155.27444     
     32     (1,2277)             -387.39336     
     33     (1,2276)             -457.03044     
     34     (1,2273)             -476.44024     
     35     (1,2272)             -299.71425     
     36     (1,2376)             -211.74797     
     37     (1,2373)             -350.70229     
     38     (1,2372)             -307.96035     
     39     (1,2369)             -254.01383     
     40     (1,2368)             -452.66815     
     41     (1,2370)             -38.611958     
     42     (1,2367)             -476.49394     
     43     (1,2366)             -515.76069     
     44     (1,2363)             -693.83603     
     45     (1,2362)             -826.32944     
     46     (1,2462)             -6.5074307     
     47     (1,2459)             -935.81262     
     48     (1,2458)             -359.53744     
     49     (1,2460)             -678.86567     
     50     (1,2457)             -643.79411     
     51     (1,2538)             -444.16860     
     52     (1,2537)             -858.83062     
     53     (1,2539)             -211.90518     
     54     (1,2536)             -762.06144     
     55     (1,2614)             -543.02466     
     56     (1,2613)             -395.90014     
     57     (1,2615)             -696.01251     
     58     (1,2682)             -693.57900     
     59     (1,2684)             -528.46346     
     60     (1,2681)             -402.80684     
     61     (1,2762)             -667.69742     
     62     (1,2761)             -301.39713     
     63     (1,2763)             -491.05064     
     64     (1,2760)             -628.26140     
     65     (1,2759)             -568.43040     
     66     (1,2756)             -572.31552     
     67     (1,2755)             -635.35163     
     68     (1,2752)             -633.16444     
     69     (1,2751)             -709.27368     
     70     (1,2748)             -43.621467     
     71     (1,2831)             -621.62176     
     72     (1,2830)             -591.80857     
     73     (1,2827)             -279.28276     
     74     (1,2829)             -396.64279     
     75     (1,2828)             -513.98481     
     76     (1,2825)             -521.37495     
     77     (1,2824)             -232.09582     
     78     (1,2895)             -381.02995     
     79     (1,2892)             -462.88538     
     80     (1,2891)             -447.64866     
     81     (1,2888)             -410.17217     
     82     (1,2887)             -552.54368     
     83     (1,2884)             -160.92035     
     84     (1,2819)             -526.28428     
     85     (1,2818)             -160.32413     
     86     (1,2816)             -546.33414     
     87     (1,2813)             -183.19255     
     88     (1,2739)             -601.89013     
     89     (1,2738)             -224.56020     
     90     (1,2736)             -767.07595     
     91     (1,2733)             -252.01548     
     92     (1,2667)             -844.35862     
     93     (1,2666)             -227.27414     
     94     (1,2664)             -843.40997     
     95     (1,2600)             -426.96586     
     96     (1,2597)             -750.60998     
     97     (1,2595)             -866.19193     
     98     (1,2520)             -317.10189     
     99     (1,2519)             -815.05301     
    100     (1,2517)             -832.39407     
    101     (1,2436)             -877.41944     
    102     (1,2434)             -633.94526     
    103     (1,2435)             -881.49762     
    104     (1,2438)             -351.06944     
    105     (1,2344)             -770.56397     
    106     (1,2342)             -554.07886     
    107     (1,2343)             -487.80050     
    108     (1,2251)             -835.70443     
    109     (1,2249)             -769.24503     
    110     (1,2183)             -870.61469     
    111     (1,2181)             -840.45328     
    112     (1,2114)             -850.57910     
    113     (1,2112)             -858.29434     
    114     (1,2044)             -506.40686     
    115     (1,2043)             -525.48875     
    116     (1,2041)             -858.50283     
    117     (1,1972)             -144.67492     
    118     (1,1969)             -827.90014     
    119     (1,1967)             -399.40942     
    120     (1,1966)             -542.76800     
    121     (1,1893)             -696.16101     
    122     (1,1894)             -168.41921     
    123     (1,1892)             -561.15171     
    124     (1,1895)             -620.60598     
    125     (1,1896)             -756.77626     
    126     (1,1819)             -190.61299     
    127     (1,1822)             -1081.9006     
    128     (1,1820)             -1085.4893     
    129     (1,1745)             -1510.5030     
    130     (1,1742)             -851.59543     
    131     (1,1741)             -673.44474     
    132     (1,1738)             -624.36525     
    133     (1,1737)             -333.78725     
    134     (1,1735)             -541.09520     
    135     (1,1732)             -177.80220     
    136     (1,1653)             -534.85834     
    137     (1,1651)             -548.07282     
    138     (1,1654)             -528.20787     
    139     (1,1655)             -808.53427     
    140     (1,1658)             -403.59900     
    141     (1,1548)             -1234.3184     
    142     (1,1546)             -1070.0308     
    143     (1,1543)             -951.27675     
    144     (1,1453)             -715.24716     
    145     (1,1452)             -1342.8022     
    146     (1,1449)             -1226.8026     
    147     (1,1448)             -500.79111     
    148     (1,1538)             -654.60813     
    149     (1,1535)             -965.58550     
    150     (1,1537)             -676.01233     
    151     (1,1647)             -528.07254     
    152     (1,1649)             -580.38615     
    153     (1,1648)             -602.44253     
    154     (1,1645)             -739.96470     
    155     (1,1644)             -623.18812     
    156     (1,1642)             -465.58595     
    157     (1,1639)             -950.67456     
    158     (1,1638)             -492.12015     
    159     (1,1640)             -661.24940     
    160     (1,1637)             -965.52340     
    161     (1,1636)             -946.04385     
    162     (1,1633)             -958.35228     
    163     (1,1632)             -973.83708     
    164     (1,1629)             -969.88089     
    165     (1,1628)             -957.00491     
    166     (1,1625)             -986.16043     
    167     (1,1624)             -1010.1481     
    168     (1,1621)             -1050.3976     
    169     (1,1620)             -1123.3380     
    170     (1,1617)             -810.96633     
    171     (1,1615)             -609.78740     
    172     (1,1614)             -1125.7697     
    173     (1,1611)             -888.17993     
    174     (1,1525)             -516.96490     
    175     (1,1524)             -1145.5539     
    176     (1,1521)             -941.62499     
    177     (1,1519)             -540.12133     
    178     (1,1518)             -1093.9558     
    179     (1,1515)             -1063.2719     
    180     (1,1431)             -1131.6715     
    181     (1,1429)             -987.60257     
    182     (1,1432)             -540.85999     
    183     (1,1353)             -894.02964     
    184     (1,1351)             -863.21480     
    185     (1,1274)             -877.51413     
    186     (1,1272)             -854.94929     
    187     (1,1194)             -1038.5913     
    188     (1,1192)             -1075.5906     
    189     (1,1189)             -208.40417     
    190     (1,1111)             -1224.0028     
    191     (1,1109)             -820.63238     
    192     (1,1108)             -575.16321     
    193     (1,1030)             -1106.0134     
    194     (1,1028)             -1070.4530     
    195     (1,950)              -302.34301     
    196     (1,947)              -1047.2731     
    197     (1,945)              -757.51340     
    198     (1,944)              -1079.6471     
    199     (1,866)              -522.57614     
    200     (1,863)              -1070.9373     
    201     (1,861)              -822.71665     
    202     (1,860)              -778.30539     
    203     (1,782)              -1071.3677     
    204     (1,779)              -433.24151     
    205     (1,777)              -1459.5922     
    206     (1,700)              -21.102418     
    207     (1,699)              -1453.4351     
    208     (1,697)              -268.70693     
    209     (1,694)              -1207.0194     
    210     (1,618)              -676.89637     
    211     (1,617)              -814.84739     
    212     (1,615)              -1032.3521     
    213     (1,612)              -543.83975     
    214     (1,537)              -1040.0584     
    215     (1,535)              -764.99706     
    216     (1,534)              -1169.2803     
    217     (1,531)              -27.844761     
    218     (1,457)              -1173.9528     
    219     (1,455)              -1029.7716     
    220     (1,382)              -527.19945     
    221     (1,381)              -984.78045     
    222     (1,378)              -933.55623     
    223     (1,377)              -1028.5333     
    224     (1,375)              -214.60781     
    225     (1,372)              -1129.2278     
    226     (1,371)              -467.01937     
    227     (1,299)              -801.35434     
    228     (1,296)              -1020.4248     
    229     (1,294)              -156.35574     
    230     (1,293)              -933.26763     
    231     (1,290)              -904.59967     
    232     (1,289)              -1043.0641     
    233     (1,286)              -184.37466     
    234     (1,250)              -832.44953     
    235     (1,249)              -1011.1232     
    236     (1,246)              -599.45749     
    237     (1,244)              -745.97970     
    238     (1,243)              -1109.2211     
    239     (1,209)              -532.14098     
    240     (1,206)              -1056.3230     
    241     (1,204)              -503.60557     
    242     (1,203)              -1006.3607     
    243     (1,171)              -487.07146     
    244     (1,168)              -1150.1105     
    245     (1,166)              -77.965998     
    246     (1,165)              -1252.9145     
    247     (1,135)              -76.597592     
    248     (1,132)              -1206.8105     
    249     (1,130)              -74.564609     
    250     (1,129)              -1176.6216     
    251     (1,101)              -72.183996     
    252     (1,98)               -1146.6952     
    253     (1,96)               -69.724644     
    254     (1,95)               -1112.2438     
    255     (1,69)               -66.943570     
    256     (1,66)               -1089.3318     
    257     (1,65)               -72.389749     
    258     (1,63)               -921.78467     
    259     (1,60)               -385.21501     
    260     (1,36)               -861.98015     
    261     (1,35)               -478.12561     
    262     (1,33)               -667.02642     
    263     (1,30)               -792.31207     
    264     (1,8)                -626.94082     
    265     (1,7)                -894.55185     
    266     (1,5)                -108.41831     
 -----------------------------------------------



 UBDSV06 SAVING     FLOW-JA-FACE IN MODEL EXPERIMENTAL     PACKAGE SFR             CONNECTED TO MODEL EXPERIMENTAL     PACKAGE SFR              ON UNIT   1015 AT TIME STEP     48, STRESS PERIOD      2
 UBDSV06 SAVING              GWF IN MODEL EXPERIMENTAL     PACKAGE SFR             CONNECTED TO MODEL EXPERIMENTAL     PACKAGE EXPERIMENTAL     ON UNIT   1015 AT TIME STEP     48, STRESS PERIOD      2
 UBDSV06 SAVING         RAINFALL IN MODEL EXPERIMENTAL     PACKAGE SFR             CONNECTED TO MODEL EXPERIMENTAL     PACKAGE SFR              ON UNIT   1015 AT TIME STEP     48, STRESS PERIOD      2
 UBDSV06 SAVING      EVAPORATION IN MODEL EXPERIMENTAL     PACKAGE SFR             CONNECTED TO MODEL EXPERIMENTAL     PACKAGE SFR              ON UNIT   1015 AT TIME STEP     48, STRESS PERIOD      2
 UBDSV06 SAVING           RUNOFF IN MODEL EXPERIMENTAL     PACKAGE SFR             CONNECTED TO MODEL EXPERIMENTAL     PACKAGE SFR              ON UNIT   1015 AT TIME STEP     48, STRESS PERIOD      2
 UBDSV06 SAVING       EXT-INFLOW IN MODEL EXPERIMENTAL     PACKAGE SFR             CONNECTED TO MODEL EXPERIMENTAL     PACKAGE SFR              ON UNIT   1015 AT TIME STEP     48, STRESS PERIOD      2
 UBDSV06 SAVING      EXT-OUTFLOW IN MODEL EXPERIMENTAL     PACKAGE SFR             CONNECTED TO MODEL EXPERIMENTAL     PACKAGE SFR              ON UNIT   1015 AT TIME STEP     48, STRESS PERIOD      2
 UBDSV06 SAVING          STORAGE IN MODEL EXPERIMENTAL     PACKAGE SFR             CONNECTED TO MODEL EXPERIMENTAL     PACKAGE SFR              ON UNIT   1015 AT TIME STEP     48, STRESS PERIOD      2
1
  HEAD IN LAYER   1 AT END OF TIME STEP  48 IN STRESS PERIOD    2
  ---------------------------------------------------------------------------

                1               2               3               4               5               6               7               8               9              10
               11              12              13              14              15              16              17              18              19              20
               21              22              23              24              25              26              27              28              29              30
               31              32              33              34              35              36              37              38              39              40
               41              42              43              44              45              46              47              48              49              50
               51              52              53              54              55              56              57              58              59              60
               61              62              63              64              65              66              67              68              69              70
               71              72              73              74              75              76              77              78              79              80
               81              82              83              84              85              86              87              88              89              90
               91              92              93              94              95              96              97              98              99             100
              101             102             103             104             105             106             107             108             109             110
              111             112             113             114             115             116             117             118             119             120
              121             122             123             124             125             126             127             128             129             130
              131             132             133             134             135             136             137             138             139             140
              141             142             143             144             145             146             147             148             149             150
              151             152             153             154             155             156             157             158             159             160
              161             162             163             164             165             166             167             168             169             170
              171             172             173             174             175             176             177             178             179             180
              181             182             183             184             185             186             187             188             189             190
              191             192             193             194             195             196             197             198             199             200
              201             202             203             204             205             206             207             208             209             210
              211             212             213             214             215             216             217             218             219             220
              221             222             223             224             225             226             227             228             229             230
              231             232             233             234             235             236             237             238             239             240
              241             242             243             244             245             246             247             248             249             250
              251             252             253             254             255             256             257             258             259             260
              261             262             263             264             265             266             267             268             269             270
              271             272             273             274             275             276             277             278             279             280
              281             282             283             284             285             286             287             288             289             290
              291             292             293             294             295             296             297             298             299             300
              301             302             303             304             305             306             307             308             309             310
              311             312             313             314             315             316             317             318             319             320
              321             322             323             324             325             326             327             328             329             330
              331             332             333             334             335             336             337             338             339             340
              341             342             343             344             345             346             347             348             349             350
              351             352             353             354             355             356             357             358             359             360
              361             362             363             364             365             366             367             368             369             370
              371             372             373             374             375             376             377             378             379             380
              381             382             383             384             385             386             387             388             389             390
              391             392             393             394             395             396             397             398             399             400
              401             402             403             404             405             406             407             408             409             410
              411             412             413             414             415             416             417             418             419             420
              421             422             423             424             425             426             427             428             429             430
              431             432             433             434             435             436             437             438             439             440
              441             442             443             444             445             446             447             448             449             450
              451             452             453             454             455             456             457             458             459             460
              461             462             463             464             465             466             467             468             469             470
              471             472             473             474             475             476             477             478             479             480
              481             482             483             484             485             486             487             488             489             490
              491             492             493             494             495             496             497             498             499             500
              501             502             503             504             505             506             507             508             509             510
              511             512             513             514             515             516             517             518             519             520
              521             522             523             524             525             526             527             528             529             530
              531             532             533             534             535             536             537             538             539             540
              541             542             543             544             545             546             547             548             549             550
              551             552             553             554             555             556             557             558             559             560
              561             562             563             564             565             566             567             568             569             570
              571             572             573             574             575             576             577             578             579             580
              581             582             583             584             585             586             587             588             589             590
              591             592             593             594             595             596             597             598             599             600
              601             602             603             604             605             606             607             608             609             610
              611             612             613             614             615             616             617             618             619             620
              621             622             623             624             625             626             627             628             629             630
              631             632             633             634             635             636             637             638             639             640
              641             642             643             644             645             646             647             648             649             650
              651             652             653             654             655             656             657             658             659             660
              661             662             663             664             665             666             667             668             669             670
              671             672             673             674             675             676             677             678             679             680
              681             682             683             684             685             686             687             688             689             690
              691             692             693             694             695             696             697             698             699             700
              701             702             703             704             705             706             707             708             709             710
              711             712             713             714             715             716             717             718             719             720
              721             722             723             724             725             726             727             728             729             730
              731             732             733             734             735             736             737             738             739             740
              741             742             743             744             745             746             747             748             749             750
              751             752             753             754             755             756             757             758             759             760
              761             762             763             764             765             766             767             768             769             770
              771             772             773             774             775             776             777             778             779             780
              781             782             783             784             785             786             787             788             789             790
              791             792             793             794             795             796             797             798             799             800
              801             802             803             804             805             806             807             808             809             810
              811             812             813             814             815             816             817             818             819             820
              821             822             823             824             825             826             827             828             829             830
              831             832             833             834             835             836             837             838             839             840
              841             842             843             844             845             846             847             848             849             850
              851             852             853             854             855             856             857             858             859             860
              861             862             863             864             865             866             867             868             869             870
              871             872             873             874             875             876             877             878             879             880
              881             882             883             884             885             886             887             888             889             890
              891             892             893             894             895             896             897             898             899             900
              901             902             903             904             905             906             907             908             909             910
              911             912             913             914             915             916             917             918             919             920
              921             922             923             924             925             926             927             928             929             930
              931             932             933             934             935             936             937             938             939             940
              941             942             943             944             945             946             947             948             949             950
              951             952             953             954             955             956             957             958             959             960
              961             962             963             964             965             966             967             968             969             970
              971             972             973             974             975             976             977             978             979             980
              981             982             983             984             985             986             987             988             989             990
              991             992             993             994             995             996             997             998             999            1000
             1001            1002            1003            1004            1005            1006            1007            1008            1009            1010
             1011            1012            1013            1014            1015            1016            1017            1018            1019            1020
             1021            1022            1023            1024            1025            1026            1027            1028            1029            1030
             1031            1032            1033            1034            1035            1036            1037            1038            1039            1040
             1041            1042            1043            1044            1045            1046            1047            1048            1049            1050
             1051            1052            1053            1054            1055            1056            1057            1058            1059            1060
             1061            1062            1063            1064            1065            1066            1067            1068            1069            1070
             1071            1072            1073            1074            1075            1076            1077            1078            1079            1080
             1081            1082            1083            1084            1085            1086            1087            1088            1089            1090
             1091            1092            1093            1094            1095            1096            1097            1098            1099            1100
             1101            1102            1103            1104            1105            1106            1107            1108            1109            1110
             1111            1112            1113            1114            1115            1116            1117            1118            1119            1120
             1121            1122            1123            1124            1125            1126            1127            1128            1129            1130
             1131            1132            1133            1134            1135            1136            1137            1138            1139            1140
             1141            1142            1143            1144            1145            1146            1147            1148            1149            1150
             1151            1152            1153            1154            1155            1156            1157            1158            1159            1160
             1161            1162            1163            1164            1165            1166            1167            1168            1169            1170
             1171            1172            1173            1174            1175            1176            1177            1178            1179            1180
             1181            1182            1183            1184            1185            1186            1187            1188            1189            1190
             1191            1192            1193            1194            1195            1196            1197            1198            1199            1200
             1201            1202            1203            1204            1205            1206            1207            1208            1209            1210
             1211            1212            1213            1214            1215            1216            1217            1218            1219            1220
             1221            1222            1223            1224            1225            1226            1227            1228            1229            1230
             1231            1232            1233            1234            1235            1236            1237            1238            1239            1240
             1241            1242            1243            1244            1245            1246            1247            1248            1249            1250
             1251            1252            1253            1254            1255            1256            1257            1258            1259            1260
             1261            1262            1263            1264            1265            1266            1267            1268            1269            1270
             1271            1272            1273            1274            1275            1276            1277            1278            1279            1280
             1281            1282            1283            1284            1285            1286            1287            1288            1289            1290
             1291            1292            1293            1294            1295            1296            1297            1298            1299            1300
             1301            1302            1303            1304            1305            1306            1307            1308            1309            1310
             1311            1312            1313            1314            1315            1316            1317            1318            1319            1320
             1321            1322            1323            1324            1325            1326            1327            1328            1329            1330
             1331            1332            1333            1334            1335            1336            1337            1338            1339            1340
             1341            1342            1343            1344            1345            1346            1347            1348            1349            1350
             1351            1352            1353            1354            1355            1356            1357            1358            1359            1360
             1361            1362            1363            1364            1365            1366            1367            1368            1369            1370
             1371            1372            1373            1374            1375            1376            1377            1378            1379            1380
             1381            1382            1383            1384            1385            1386            1387            1388            1389            1390
             1391            1392            1393            1394            1395            1396            1397            1398            1399            1400
             1401            1402            1403            1404            1405            1406            1407            1408            1409            1410
             1411            1412            1413            1414            1415            1416            1417            1418            1419            1420
             1421            1422            1423            1424            1425            1426            1427            1428            1429            1430
             1431            1432            1433            1434            1435            1436            1437            1438            1439            1440
             1441            1442            1443            1444            1445            1446            1447            1448            1449            1450
             1451            1452            1453            1454            1455            1456            1457            1458            1459            1460
             1461            1462            1463            1464            1465            1466            1467            1468            1469            1470
             1471            1472            1473            1474            1475            1476            1477            1478            1479            1480
             1481            1482            1483            1484            1485            1486            1487            1488            1489            1490
             1491            1492            1493            1494            1495            1496            1497            1498            1499            1500
             1501            1502            1503            1504            1505            1506            1507            1508            1509            1510
             1511            1512            1513            1514            1515            1516            1517            1518            1519            1520
             1521            1522            1523            1524            1525            1526            1527            1528            1529            1530
             1531            1532            1533            1534            1535            1536            1537            1538            1539            1540
             1541            1542            1543            1544            1545            1546            1547            1548            1549            1550
             1551            1552            1553            1554            1555            1556            1557            1558            1559            1560
             1561            1562            1563            1564            1565            1566            1567            1568            1569            1570
             1571            1572            1573            1574            1575            1576            1577            1578            1579            1580
             1581            1582            1583            1584            1585            1586            1587            1588            1589            1590
             1591            1592            1593            1594            1595            1596            1597            1598            1599            1600
             1601            1602            1603            1604            1605            1606            1607            1608            1609            1610
             1611            1612            1613            1614            1615            1616            1617            1618            1619            1620
             1621            1622            1623            1624            1625            1626            1627            1628            1629            1630
             1631            1632            1633            1634            1635            1636            1637            1638            1639            1640
             1641            1642            1643            1644            1645            1646            1647            1648            1649            1650
             1651            1652            1653            1654            1655            1656            1657            1658            1659            1660
             1661            1662            1663            1664            1665            1666            1667            1668            1669            1670
             1671            1672            1673            1674            1675            1676            1677            1678            1679            1680
             1681            1682            1683            1684            1685            1686            1687            1688            1689            1690
             1691            1692            1693            1694            1695            1696            1697            1698            1699            1700
             1701            1702            1703            1704            1705            1706            1707            1708            1709            1710
             1711            1712            1713            1714            1715            1716            1717            1718            1719            1720
             1721            1722            1723            1724            1725            1726            1727            1728            1729            1730
             1731            1732            1733            1734            1735            1736            1737            1738            1739            1740
             1741            1742            1743            1744            1745            1746            1747            1748            1749            1750
             1751            1752            1753            1754            1755            1756            1757            1758            1759            1760
             1761            1762            1763            1764            1765            1766            1767            1768            1769            1770
             1771            1772            1773            1774            1775            1776            1777            1778            1779            1780
             1781            1782            1783            1784            1785            1786            1787            1788            1789            1790
             1791            1792            1793            1794            1795            1796            1797            1798            1799            1800
             1801            1802            1803            1804            1805            1806            1807            1808            1809            1810
             1811            1812            1813            1814            1815            1816            1817            1818            1819            1820
             1821            1822            1823            1824            1825            1826            1827            1828            1829            1830
             1831            1832            1833            1834            1835            1836            1837            1838            1839            1840
             1841            1842            1843            1844            1845            1846            1847            1848            1849            1850
             1851            1852            1853            1854            1855            1856            1857            1858            1859            1860
             1861            1862            1863            1864            1865            1866            1867            1868            1869            1870
             1871            1872            1873            1874            1875            1876            1877            1878            1879            1880
             1881            1882            1883            1884            1885            1886            1887            1888            1889            1890
             1891            1892            1893            1894            1895            1896            1897            1898            1899            1900
             1901            1902            1903            1904            1905            1906            1907            1908            1909            1910
             1911            1912            1913            1914            1915            1916            1917            1918            1919            1920
             1921            1922            1923            1924            1925            1926            1927            1928            1929            1930
             1931            1932            1933            1934            1935            1936            1937            1938            1939            1940
             1941            1942            1943            1944            1945            1946            1947            1948            1949            1950
             1951            1952            1953            1954            1955            1956            1957            1958            1959            1960
             1961            1962            1963            1964            1965            1966            1967            1968            1969            1970
             1971            1972            1973            1974            1975            1976            1977            1978            1979            1980
             1981            1982            1983            1984            1985            1986            1987            1988            1989            1990
             1991            1992            1993            1994            1995            1996            1997            1998            1999            2000
             2001            2002            2003            2004            2005            2006            2007            2008            2009            2010
             2011            2012            2013            2014            2015            2016            2017            2018            2019            2020
             2021            2022            2023            2024            2025            2026            2027            2028            2029            2030
             2031            2032            2033            2034            2035            2036            2037            2038            2039            2040
             2041            2042            2043            2044            2045            2046            2047            2048            2049            2050
             2051            2052            2053            2054            2055            2056            2057            2058            2059            2060
             2061            2062            2063            2064            2065            2066            2067            2068            2069            2070
             2071            2072            2073            2074            2075            2076            2077            2078            2079            2080
             2081            2082            2083            2084            2085            2086            2087            2088            2089            2090
             2091            2092            2093            2094            2095            2096            2097            2098            2099            2100
             2101            2102            2103            2104            2105            2106            2107            2108            2109            2110
             2111            2112            2113            2114            2115            2116            2117            2118            2119            2120
             2121            2122            2123            2124            2125            2126            2127            2128            2129            2130
             2131            2132            2133            2134            2135            2136            2137            2138            2139            2140
             2141            2142            2143            2144            2145            2146            2147            2148            2149            2150
             2151            2152            2153            2154            2155            2156            2157            2158            2159            2160
             2161            2162            2163            2164            2165            2166            2167            2168            2169            2170
             2171            2172            2173            2174            2175            2176            2177            2178            2179            2180
             2181            2182            2183            2184            2185            2186            2187            2188            2189            2190
             2191            2192            2193            2194            2195            2196            2197            2198            2199            2200
             2201            2202            2203            2204            2205            2206            2207            2208            2209            2210
             2211            2212            2213            2214            2215            2216            2217            2218            2219            2220
             2221            2222            2223            2224            2225            2226            2227            2228            2229            2230
             2231            2232            2233            2234            2235            2236            2237            2238            2239            2240
             2241            2242            2243            2244            2245            2246            2247            2248            2249            2250
             2251            2252            2253            2254            2255            2256            2257            2258            2259            2260
             2261            2262            2263            2264            2265            2266            2267            2268            2269            2270
             2271            2272            2273            2274            2275            2276            2277            2278            2279            2280
             2281            2282            2283            2284            2285            2286            2287            2288            2289            2290
             2291            2292            2293            2294            2295            2296            2297            2298            2299            2300
             2301            2302            2303            2304            2305            2306            2307            2308            2309            2310
             2311            2312            2313            2314            2315            2316            2317            2318            2319            2320
             2321            2322            2323            2324            2325            2326            2327            2328            2329            2330
             2331            2332            2333            2334            2335            2336            2337            2338            2339            2340
             2341            2342            2343            2344            2345            2346            2347            2348            2349            2350
             2351            2352            2353            2354            2355            2356            2357            2358            2359            2360
             2361            2362            2363            2364            2365            2366            2367            2368            2369            2370
             2371            2372            2373            2374            2375            2376            2377            2378            2379            2380
             2381            2382            2383            2384            2385            2386            2387            2388            2389            2390
             2391            2392            2393            2394            2395            2396            2397            2398            2399            2400
             2401            2402            2403            2404            2405            2406            2407            2408            2409            2410
             2411            2412            2413            2414            2415            2416            2417            2418            2419            2420
             2421            2422            2423            2424            2425            2426            2427            2428            2429            2430
             2431            2432            2433            2434            2435            2436            2437            2438            2439            2440
             2441            2442            2443            2444            2445            2446            2447            2448            2449            2450
             2451            2452            2453            2454            2455            2456            2457            2458            2459            2460
             2461            2462            2463            2464            2465            2466            2467            2468            2469            2470
             2471            2472            2473            2474            2475            2476            2477            2478            2479            2480
             2481            2482            2483            2484            2485            2486            2487            2488            2489            2490
             2491            2492            2493            2494            2495            2496            2497            2498            2499            2500
             2501            2502            2503            2504            2505            2506            2507            2508            2509            2510
             2511            2512            2513            2514            2515            2516            2517            2518            2519            2520
             2521            2522            2523            2524            2525            2526            2527            2528            2529            2530
             2531            2532            2533            2534            2535            2536            2537            2538            2539            2540
             2541            2542            2543            2544            2545            2546            2547            2548            2549            2550
             2551            2552            2553            2554            2555            2556            2557            2558            2559            2560
             2561            2562            2563            2564            2565            2566            2567            2568            2569            2570
             2571            2572            2573            2574            2575            2576            2577            2578            2579            2580
             2581            2582            2583            2584            2585            2586            2587            2588            2589            2590
             2591            2592            2593            2594            2595            2596            2597            2598            2599            2600
             2601            2602            2603            2604            2605            2606            2607            2608            2609            2610
             2611            2612            2613            2614            2615            2616            2617            2618            2619            2620
             2621            2622            2623            2624            2625            2626            2627            2628            2629            2630
             2631            2632            2633            2634            2635            2636            2637            2638            2639            2640
             2641            2642            2643            2644            2645            2646            2647            2648            2649            2650
             2651            2652            2653            2654            2655            2656            2657            2658            2659            2660
             2661            2662            2663            2664            2665            2666            2667            2668            2669            2670
             2671            2672            2673            2674            2675            2676            2677            2678            2679            2680
             2681            2682            2683            2684            2685            2686            2687            2688            2689            2690
             2691            2692            2693            2694            2695            2696            2697            2698            2699            2700
             2701            2702            2703            2704            2705            2706            2707            2708            2709            2710
             2711            2712            2713            2714            2715            2716            2717            2718            2719            2720
             2721            2722            2723            2724            2725            2726            2727            2728            2729            2730
             2731            2732            2733            2734            2735            2736            2737            2738            2739            2740
             2741            2742            2743            2744            2745            2746            2747            2748            2749            2750
             2751            2752            2753            2754            2755            2756            2757            2758            2759            2760
             2761            2762            2763            2764            2765            2766            2767            2768            2769            2770
             2771            2772            2773            2774            2775            2776            2777            2778            2779            2780
             2781            2782            2783            2784            2785            2786            2787            2788            2789            2790
             2791            2792            2793            2794            2795            2796            2797            2798            2799            2800
             2801            2802            2803            2804            2805            2806            2807            2808            2809            2810
             2811            2812            2813            2814            2815            2816            2817            2818            2819            2820
             2821            2822            2823            2824            2825            2826            2827            2828            2829            2830
             2831            2832            2833            2834            2835            2836            2837            2838            2839            2840
             2841            2842            2843            2844            2845            2846            2847            2848            2849            2850
             2851            2852            2853            2854            2855            2856            2857            2858            2859            2860
             2861            2862            2863            2864            2865            2866            2867            2868            2869            2870
             2871            2872            2873            2874            2875            2876            2877            2878            2879            2880
             2881            2882            2883            2884            2885            2886            2887            2888            2889            2890
             2891            2892            2893            2894            2895            2896            2897            2898            2899            2900
             2901            2902            2903            2904            2905            2906            2907            2908            2909            2910
             2911            2912            2913            2914            2915            2916            2917            2918            2919            2920
             2921            2922            2923            2924            2925            2926            2927            2928            2929            2930
             2931            2932            2933            2934            2935            2936            2937            2938            2939            2940
             2941            2942            2943            2944            2945            2946            2947            2948            2949            2950
             2951            2952            2953            2954            2955            2956            2957            2958            2959            2960
             2961            2962            2963            2964            2965            2966            2967            2968            2969            2970
             2971            2972            2973            2974            2975            2976            2977            2978            2979            2980
             2981            2982            2983            2984            2985            2986            2987            2988            2989            2990
             2991            2992            2993            2994            2995            2996            2997            2998            2999            3000
             3001            3002            3003            3004            3005            3006            3007            3008            3009            3010
             3011            3012            3013            3014            3015            3016            3017            3018            3019            3020
             3021            3022            3023            3024            3025            3026            3027            3028            3029            3030
             3031            3032            3033            3034            3035            3036            3037            3038            3039            3040
             3041            3042            3043            3044            3045            3046            3047            3048            3049            3050
             3051            3052            3053            3054            3055            3056            3057            3058            3059            3060
             3061            3062            3063            3064            3065            3066            3067            3068            3069            3070
             3071            3072            3073            3074            3075            3076            3077            3078            3079            3080
             3081            3082            3083            3084            3085            3086            3087            3088            3089            3090
             3091            3092            3093            3094            3095            3096            3097            3098            3099            3100
             3101            3102            3103            3104            3105            3106            3107            3108            3109            3110
             3111            3112            3113            3114            3115            3116            3117            3118            3119            3120
             3121            3122            3123            3124            3125            3126            3127            3128            3129            3130
             3131            3132            3133            3134            3135
 ................................................................................................................................................................
   1      138.212         137.919         137.401         136.604         135.659         135.361         135.499         135.150         135.302         135.482    
          135.687         135.890         136.087         136.277         136.460         136.642         136.824         137.003         137.160         137.285    
          137.388         137.467         137.513         139.161         138.796         138.431         137.918         137.190         136.112         135.333    
          136.577         136.091         135.023         135.207         135.416         134.999         135.443         135.760         136.029         136.275    
          136.505         136.722         136.930         137.126         137.301         137.449         137.580         137.694         137.784         137.846    
          137.871         139.394         139.419         139.219         138.905         138.459         137.870         137.112         136.171         135.529    
          136.666         136.275         135.061         135.329         135.697         135.123         135.558         135.723         135.371         135.618    
          135.968         136.286         136.565         136.818         137.052         137.268         137.461         137.627         137.770         137.895    
          138.001         138.081         138.126         138.114         139.787         139.836         139.799         139.640         139.377         139.003    
          138.523         137.936         137.262         136.425         135.149         135.415         135.781         135.175         135.684         135.872    
          135.454         135.735         136.127         136.467         136.768         137.040         137.283         137.503         137.693         137.858    
          138.005         138.133         138.240         138.317         138.350         138.327         140.143         140.239         140.261         140.208    
          140.067         139.844         139.534         139.137         138.656         138.086         137.437         136.535         135.196         135.491    
          135.850         135.218         135.779         135.971         135.522         135.810         136.214         136.583         136.905         137.183    
          137.435         137.651         137.843         138.022         138.185         138.328         138.444         138.527         138.566         138.547    
          140.427         140.569         140.646         140.660         140.610         140.490         140.301         140.043         139.712         139.308    
          138.823         138.256         137.581         136.619         135.253         135.542         135.924         135.302         135.775         135.982    
          135.390         135.755         136.263         136.659         136.974         137.256         137.503         137.727         137.943         138.151    
          138.343         138.509         138.647         138.749         138.806         138.803         140.641         140.812         140.933         141.002    
          141.020         140.983         140.889         140.733         140.519         140.244         139.903         139.491         139.005         138.439    
          137.726         136.747         135.395         135.415         136.085         135.451         135.796         136.040         135.480         135.843    
          136.317         136.661         136.958         137.237         137.501         137.765         138.029         138.282         138.510         138.710    
          138.878         139.008         139.093         139.120         141.023         141.019         141.130         141.238         141.314         141.346    
          141.327         141.258         141.134         140.958         140.732         140.447         140.101         139.689         139.212         138.645    
          137.934         137.002         135.566         135.540         136.481         136.008         135.906         136.034         135.719         135.738    
          136.217         136.485         136.825         137.149         137.471         137.811         138.144         138.447         138.716         138.953    
          139.157         139.327         139.458         139.540         140.426         140.925         141.175         141.357         141.493         141.588    
          141.641         141.646         141.601         141.508         141.368         141.182         140.946         140.656         140.310         139.907    
          139.441         138.886         138.258         137.543         136.689         136.298         137.324         137.093         135.827         135.698    
          136.752         136.546         135.686         135.982         136.238         135.793         136.246         136.444         135.807         136.155    
          136.641         137.025         137.487         137.927         138.319         138.665         138.974         139.251         139.501         139.732    
          139.965         140.271         140.557         140.827         141.086         141.329         141.560         141.781         141.995         142.203    
          142.404         142.600         142.789         142.974         143.155         143.330         143.497         143.654         143.802         143.933    
          144.041         144.114         144.137         144.069         143.813         142.972         142.540         142.369         142.347       -1.000000E+30
        -1.000000E+30   -1.000000E+30   -1.000000E+30   -1.000000E+30   -1.000000E+30   -1.000000E+30   -1.000000E+30     140.462         140.962         141.300    
          141.542         141.716         141.835         141.908         141.938         141.919         141.857         141.749         141.597         141.402    
          141.157         140.865         140.522         140.131         139.683         139.182         138.663         138.138         137.611         137.012    
          136.093         135.747         136.700         136.390         135.993         136.174         135.774         135.700         136.350         136.557    
          135.709         136.001         137.008         137.641         138.132         138.558         138.938         139.285         139.606         139.909    
          140.209         140.523         140.825         141.115         141.391         141.651         141.900         142.140         142.374         142.601    
          142.826         143.048         143.265         143.482         143.696         143.905         144.107         144.302         144.484         144.648    
          144.789         144.904         144.980         145.004         144.974       -1.000000E+30   -1.000000E+30   -1.000000E+30   -1.000000E+30   -1.000000E+30
        -1.000000E+30   -1.000000E+30   -1.000000E+30   -1.000000E+30   -1.000000E+30   -1.000000E+30   -1.000000E+30   -1.000000E+30     140.529         141.046    
          141.427         141.711         141.920         142.066         142.158         142.207         142.214         142.179         142.102         141.982    
          141.821         141.615         141.366         141.074         140.740         140.367         139.954         139.512         139.052         138.567    
          138.048         137.458         136.796         136.121         135.647         136.423         135.764         136.482         137.293         137.889    
          138.392         138.844         139.258         139.642         140.004         140.352         140.689         141.007         141.314         141.604    
          141.878         142.142         142.397         142.645         142.890         143.133         143.372         143.612         143.853         144.092    
          144.328         144.558         144.780         144.990         145.182         145.353         145.502         145.620         145.704         145.747    
        -1.000000E+30   -1.000000E+30   -1.000000E+30   -1.000000E+30   -1.000000E+30   -1.000000E+30   -1.000000E+30   -1.000000E+30   -1.000000E+30   -1.000000E+30
        -1.000000E+30   -1.000000E+30   -1.000000E+30   -1.000000E+30     140.618         141.150         141.557         141.870         142.108         142.282    
          142.397         142.461         142.487         142.476         142.426         142.335         142.205         142.035         141.825         141.578    
          141.291         140.968         140.612         140.228         139.811         139.354         138.856         138.319         137.715         136.947    
          136.426         137.308         136.973         135.831         135.849         136.467         135.907         136.763         137.562         138.159    
          138.686         139.167         139.616         140.036         140.428         140.787         141.120         141.440         141.742         142.028    
          142.303         142.569         142.828         143.086         143.344         143.600         143.859         144.121         144.382         144.641    
          144.895         145.142         145.377         145.595         145.794         145.973         146.129         146.259         146.350       -1.000000E+30
        -1.000000E+30   -1.000000E+30   -1.000000E+30   -1.000000E+30   -1.000000E+30   -1.000000E+30   -1.000000E+30   -1.000000E+30   -1.000000E+30   -1.000000E+30
        -1.000000E+30   -1.000000E+30   -1.000000E+30   -1.000000E+30     140.715         141.261         141.687         142.023         142.284         142.480    
          142.620         142.706         142.746         142.751         142.722         142.659         142.558         142.420         142.244         142.034    
          141.788         141.506         141.189         140.843         140.465         140.037         139.560         139.034         138.457         137.766    
          136.927         136.299         137.272         136.857         135.997         136.485         136.194         136.183         137.110         137.850    
          138.455         139.004         139.530         140.022         140.453         140.828         141.174         141.502         141.813         142.107    
          142.391         142.665         142.934         143.202         143.472         143.744         144.022         144.303         144.585         144.866    
          145.143         145.413         145.673         145.916         146.141         146.349         146.538         146.710         146.888         147.157    
        -1.000000E+30   -1.000000E+30   -1.000000E+30   -1.000000E+30   -1.000000E+30   -1.000000E+30   -1.000000E+30   -1.000000E+30     150.151       -1.000000E+30
        -1.000000E+30   -1.000000E+30   -1.000000E+30   -1.000000E+30   -1.000000E+30     140.814         141.372         141.814         142.168         142.447    
          142.664         142.824         142.935         142.996         143.013         142.998         142.957         142.882         142.772         142.627    
          142.447         142.234         141.986         141.703         141.386         141.037         140.643         140.193         139.691         139.132    
          138.500         137.738         136.808         136.151         137.213         136.769         136.434         136.852         136.120         136.586    
          137.409         138.137         138.765         139.401         139.970         140.421         140.815         141.173         141.509         141.824    
          142.124         142.411         142.690         142.964         143.241         143.522         143.810         144.106         144.407         144.711    
          145.013         145.314         145.608         145.892         146.158         146.408         146.642         146.855         147.046         147.215    
          147.354       -1.000000E+30   -1.000000E+30     148.550       -1.000000E+30   -1.000000E+30   -1.000000E+30     149.753       -1.000000E+30     150.169    
          150.180       -1.000000E+30   -1.000000E+30   -1.000000E+30   -1.000000E+30   -1.000000E+30   -1.000000E+30     140.911         141.480         141.934    
          142.303         142.598         142.830         143.010         143.141         143.225         143.263         143.262         143.235         143.181    
          143.094         142.973         142.819         142.635         142.416         142.163         141.873         141.547         141.185         140.766    
          140.291         139.764         139.177         138.501         137.688         136.731         136.130         137.088         136.552         136.674    
          137.090         136.144         136.739         137.625         138.423         139.201         139.869         140.352         140.760         141.126    
          141.463         141.779         142.077         142.364         142.642         142.920         143.204         143.497         143.800         144.115    
          144.437         144.764         145.091         145.415         145.734         146.042         146.332         146.606         146.864         147.097    
          147.305         147.480         147.597       -1.000000E+30   -1.000000E+30   -1.000000E+30   -1.000000E+30   -1.000000E+30   -1.000000E+30   -1.000000E+30
          150.124         150.159         150.175       -1.000000E+30   -1.000000E+30   -1.000000E+30   -1.000000E+30   -1.000000E+30   -1.000000E+30   -1.000000E+30
          141.005         141.580         142.046         142.429         142.735         142.980         143.175         143.324         143.428         143.489    
          143.509         143.492         143.451         143.384         143.285         143.156         142.996         142.803         142.577         142.313    
          142.012         141.671         141.287         140.845         140.346         139.796         139.180         138.456         137.557         136.329    
          136.187         136.836         136.164         136.816         137.234         136.303         136.857         137.869         138.850         139.678    
          140.251         140.668         141.034         141.369         141.677         141.968         142.249         142.524         142.801         143.089    
          143.393         143.713         144.049         144.396         144.749         145.103         145.453         145.796         146.128         146.443    
          146.741         147.021         147.278         147.509         147.712         147.863       -1.000000E+30   -1.000000E+30   -1.000000E+30   -1.000000E+30
        -1.000000E+30     149.893         149.973         150.072         150.128         150.153       -1.000000E+30   -1.000000E+30   -1.000000E+30   -1.000000E+30
        -1.000000E+30   -1.000000E+30   -1.000000E+30     141.094         141.677         142.150         142.536         142.851         143.108         143.318    
          143.483         143.606         143.687         143.729         143.729         143.697         143.646         143.568         143.461         143.323    
          143.153         142.951         142.713         142.435         142.118         141.756         141.349         140.884         140.362         139.793    
          139.148         138.400         137.417         136.097         136.208         136.662         136.104         137.025         137.585         136.535    
          137.311         138.391         139.374         140.079         140.536         140.897         141.224         141.521         141.798         142.064    
          142.330         142.602         142.891         143.205         143.544         143.906         144.283         144.667         145.052         145.432    
          145.802         146.160         146.499         146.820         147.122         147.401         147.663         147.916         148.188         148.587    
          148.901         149.166         149.395         149.602         149.799         149.924         150.019         150.081         150.117       -1.000000E+30
        -1.000000E+30   -1.000000E+30   -1.000000E+30   -1.000000E+30   -1.000000E+30   -1.000000E+30     141.175         141.764         142.238         142.626    
          142.947         143.215         143.437         143.618         143.758         143.858         143.920         143.944         143.928         143.885    
          143.824         143.737         143.619         143.471         143.291         143.076         142.822         142.528         142.190         141.805    
          141.371         140.879         140.343         139.755         139.092         138.305         137.218         136.115         136.978         136.036    
          136.729         137.911         139.021         139.841         140.358         140.715         141.027         141.307         141.564         141.808    
          142.053         142.313         142.599         142.923         143.286         143.682         144.097         144.520         144.942         145.355    
          145.755         146.140         146.504         146.847         147.169         147.468         147.753         148.030         148.314         148.624    
          148.909         149.159         149.377         149.569         149.733         149.857         149.947         150.012         150.079       -1.000000E+30
        -1.000000E+30   -1.000000E+30   -1.000000E+30   -1.000000E+30   -1.000000E+30   -1.000000E+30     141.246         141.841         142.313         142.699    
          143.021         143.297         143.531         143.726         143.882         144.001         144.084         144.129         144.137         144.107    
          144.057         143.986         143.887         143.758         143.598         143.406         143.175         142.905         142.592         142.231    
          141.818         141.357         140.847         140.290         139.655         138.914         137.944         136.497         136.206         137.034    
          136.131         137.344         138.616         139.536         140.137         140.499         140.783         141.037         141.267         141.479    
          141.689         141.919         142.194         142.530         142.929         143.373         143.840         144.312         144.778         145.229    
          145.662         146.075         146.465         146.830         147.168         147.483         147.783         148.070         148.352         148.631    
          148.894         149.127         149.332         149.509         149.656         149.769         149.849         149.892       -1.000000E+30   -1.000000E+30
        -1.000000E+30   -1.000000E+30   -1.000000E+30   -1.000000E+30   -1.000000E+30   -1.000000E+30     141.309         141.917         142.375         142.748    
          143.069         143.351         143.597         143.806         143.978         144.116         144.219         144.287         144.318         144.311    
          144.272         144.214         144.131         144.020         143.878         143.705         143.497         143.250         142.962         142.625    
          142.239         141.800         141.323         140.787         140.168         139.433         138.543         137.511         136.693         137.731    
          137.094         136.252         137.207         136.217         137.172         138.274         139.214         139.856         140.233         140.487    
          140.713         140.915         141.082         141.238         141.412         141.652         142.001         142.458         142.977         143.514    
          144.048         144.567         145.062         145.531         145.973         146.387         146.771         147.125         147.453         147.762    
          148.053         148.331         148.596         148.843         149.064         149.256         149.421         149.557         149.662         149.737    
          149.771         149.743       -1.000000E+30   -1.000000E+30   -1.000000E+30   -1.000000E+30   -1.000000E+30   -1.000000E+30   -1.000000E+30     141.362    
          142.020         142.417         142.762         143.078         143.369         143.629         143.853         144.043         144.200         144.325    
          144.415         144.470         144.489         144.469         144.424         144.357         144.262         144.138         143.983         143.794    
          143.569         143.304         142.992         142.630         142.220         141.767         141.255         140.648         139.917         139.019    
          137.736         136.373         137.172         136.403         137.174         138.099         138.926         139.519         139.901         140.133    
          140.317         140.467         140.585         140.677         140.767         140.926         141.284         141.846         142.488         143.123    
          143.735         144.315         144.860         145.369         145.842         146.277         146.678         147.046         147.384         147.698    
          147.991         148.265         148.521         148.757         148.968         149.151         149.306         149.434         149.537         149.617    
          149.668         149.681       -1.000000E+30   -1.000000E+30   -1.000000E+30   -1.000000E+30   -1.000000E+30   -1.000000E+30   -1.000000E+30     142.268    
          142.409         142.711         143.032         143.338         143.617         143.862         144.073         144.252         144.400         144.514    
          144.593         144.638         144.646         144.619         144.567         144.489         144.382         144.244         144.075         143.870    
          143.626         143.336         142.993         142.611         142.186         141.697         141.107         140.377         139.425         137.876    
          136.404         137.149         136.408         137.137         137.936         138.617         139.114         139.461         139.663         139.768    
          139.824         139.855         139.851         139.823         139.881         140.245         141.001         141.887         142.675         143.381    
          144.033         144.632         145.181         145.684         146.142         146.559         146.937         147.282         147.598         147.892    
          148.164         148.413         148.639         148.840         149.015         149.162         149.284         149.387         149.479         149.566    
          149.603       -1.000000E+30   -1.000000E+30   -1.000000E+30   -1.000000E+30   -1.000000E+30   -1.000000E+30   -1.000000E+30     142.128         142.540    
          142.912         143.250         143.556         143.828         144.065         144.270         144.442         144.581         144.687         144.758    
          144.794         144.794         144.760         144.700         144.611         144.493         144.343         144.158         143.933         143.658    
          143.335         142.973         142.576         142.117         141.560         140.859         139.852         138.290         136.742         138.521    
          136.772         136.505         137.110         136.828         137.091         137.671         138.204         138.598         138.869         139.019    
          139.047         139.011         138.912         138.765         138.411         138.587         138.585         137.545         137.227         138.773    
          139.086         137.348         137.964         139.697         141.132         142.172         142.995         143.727         144.384         144.974    
          145.504         145.982         146.414         146.802         147.151         147.469         147.761         148.028         148.270         148.489    
          148.681         148.847         148.986         149.102         149.199         149.301         149.478         149.543       -1.000000E+30   -1.000000E+30
        -1.000000E+30   -1.000000E+30   -1.000000E+30   -1.000000E+30   -1.000000E+30     142.284         142.721         143.104         143.446         143.752    
          144.020         144.252         144.450         144.616         144.748         144.846         144.910         144.940         144.934         144.895    
          144.825         144.728         144.599         144.434         144.223         143.964         143.662         143.323         142.948         142.523    
          142.012         141.363         140.482         139.031         137.429         139.664         138.886         136.661         136.710         138.033    
          137.078         137.085         137.282         136.628         136.831         137.549         137.932         138.117         138.202         138.193    
          138.085         137.850         137.663         137.429         136.852         137.077         136.547         136.831         137.033         136.721    
          136.797         137.143         137.144         136.897         137.021         137.735         139.009         137.225         138.672         140.335    
          141.644         142.601         143.414         144.126         144.754         145.308         145.802         146.244         146.639         146.992    
          147.311         147.600         147.861         148.095         148.304         148.487         148.642         148.770         148.873         148.949    
          148.998       -1.000000E+30   -1.000000E+30   -1.000000E+30   -1.000000E+30   -1.000000E+30   -1.000000E+30   -1.000000E+30   -1.000000E+30   -1.000000E+30
          142.455         142.894         143.283         143.629         143.931         144.194         144.421         144.614         144.774         144.900    
          144.993         145.053         145.079         145.068         145.023         144.947         144.839         144.692         144.498         144.259    
          143.980         143.667         143.318         142.926         142.475         141.919         141.217         140.335         139.309         137.987    
          137.072         138.932         138.486         136.749         136.879         137.932         137.288         137.237         137.327         136.867    
          136.807         137.377         137.397         136.759         136.768         137.419         137.421         136.787         136.786         137.412    
          137.389         136.791         136.785         137.322         137.210         136.758         136.730         136.891         136.679         136.791    
          136.954         136.761         136.912         136.686         136.588         136.760         136.422         136.519         136.468         136.581    
          136.406         136.648         136.441         136.495         136.681         136.655         136.965         137.333         138.426         137.497    
          138.284         139.676         141.154         142.235         143.124         143.878         144.532         145.100         145.604         146.053    
          146.450         146.802         147.120         147.406         147.661         147.886         148.082         148.252         148.395         148.510    
          148.598         148.656         148.687       -1.000000E+30   -1.000000E+30   -1.000000E+30   -1.000000E+30   -1.000000E+30   -1.000000E+30   -1.000000E+30
        -1.000000E+30   -1.000000E+30     142.611         143.057         143.452         143.794         144.092         144.351         144.574         144.764    
          144.920         145.043         145.132         145.188         145.209         145.194         145.142         145.057         144.932         144.762    
          144.546         144.294         144.008         143.686         143.326         142.928         142.469         141.920         141.284         140.610    
          139.933         139.229         138.676         138.367         138.150         137.970         137.814         137.708         137.517         137.306    
          136.980         136.735         137.236         137.076         136.588         136.908         136.757         136.670         137.288         137.822    
          136.798         137.026         138.538         139.416         137.452         139.038         140.670         141.931         142.877         143.655    
          144.316         144.888         145.393         145.841         146.234         146.582         146.893         147.172         147.420         147.636    
          147.820         147.975         148.104         148.206         148.280         148.323         148.342       -1.000000E+30   -1.000000E+30   -1.000000E+30
        -1.000000E+30   -1.000000E+30   -1.000000E+30   -1.000000E+30   -1.000000E+30   -1.000000E+30     142.756         143.213         143.604         143.941    
          144.237         144.494         144.716         144.904         145.057         145.176         145.262         145.313         145.327         145.305    
          145.249         145.153         145.013         144.827         144.600         144.341         144.050         143.726         143.370         142.983    
          142.547         142.056         141.528         140.989         140.485         140.069         139.714         139.365         139.063         138.799    
          138.566         138.313         138.023         137.640         137.233         137.148         137.236         137.218         137.302         137.331    
          138.844         137.539         138.835         140.389         141.729         142.700         143.464         144.112         144.672         145.165    
          145.604         145.988         146.325         146.627         146.897         147.134         147.338         147.511         147.654         147.768    
          147.857         147.915         147.945         147.952       -1.000000E+30   -1.000000E+30   -1.000000E+30   -1.000000E+30   -1.000000E+30   -1.000000E+30
        -1.000000E+30   -1.000000E+30   -1.000000E+30     142.905         143.355         143.740         144.076         144.372         144.629         144.850    
          145.034         145.183         145.299         145.379         145.423         145.433         145.408         145.345         145.237         145.083    
          144.887         144.656         144.395         144.110         143.801         143.466         143.108         142.710         142.280         141.831    
          141.395         140.989         140.613         140.248         139.904         139.583         139.270         138.935         138.546         137.985    
          137.342         137.008         137.185         137.214         137.068         137.396         137.513         137.941         138.794         140.345    
          141.575         142.544         143.305         143.918         144.450         144.921         145.338         145.705         146.026         146.312    
          146.569         146.796         146.990         147.150         147.279         147.379         147.452         147.492         147.506         147.495    
        -1.000000E+30   -1.000000E+30   -1.000000E+30   -1.000000E+30   -1.000000E+30   -1.000000E+30   -1.000000E+30   -1.000000E+30   -1.000000E+30     143.040    
          143.480         143.864         144.203         144.501         144.757         144.974         145.153         145.298         145.408         145.483    
          145.524         145.530         145.499         145.426         145.309         145.148         144.948         144.717         144.463         144.194    
          143.911         143.609         143.278         142.915         142.529         142.138         141.751         141.371         140.993         140.618    
          140.251         139.879         139.485         139.040         138.416         137.409         137.302         137.808         137.390         137.716    
          138.218         137.713         138.271         139.134         140.372         141.464         142.377         143.123         143.716         144.212    
          144.655         145.043         145.381         145.677         145.942         146.179         146.392         146.576         146.725         146.840    
          146.925         146.979         147.004         146.994         146.930         146.702       -1.000000E+30   -1.000000E+30   -1.000000E+30   -1.000000E+30
        -1.000000E+30   -1.000000E+30   -1.000000E+30   -1.000000E+30     143.149         143.591         143.982         144.325         144.621         144.872    
          145.082         145.257         145.397         145.503         145.576         145.615         145.616         145.578         145.499         145.379    
          145.218         145.020         144.794         144.555         144.308         144.051         143.773         143.463         143.124         142.768    
          142.401         142.023         141.634         141.234         140.830         140.416         139.983         139.514         138.950         138.224    
          137.577         138.194         137.715         137.927         139.162         140.373         141.382         142.231         142.920         143.473    
          143.948         144.361         144.713         145.016         145.275         145.508         145.716         145.907         146.079         146.216    
          146.318         146.389         146.428         146.439         146.428         146.407         146.361       -1.000000E+30   -1.000000E+30   -1.000000E+30
        -1.000000E+30   -1.000000E+30   -1.000000E+30   -1.000000E+30   -1.000000E+30     143.238         143.694         144.096         144.439         144.724    
          144.966         145.171         145.342         145.482         145.589         145.660         145.695         145.692         145.650         145.570    
          145.451         145.293         145.099         144.885         144.667         144.442         144.206         143.940         143.640         143.313    
          142.965         142.594         142.201         141.783         141.347         140.892         140.419         139.924         139.369         138.706    
          138.079         137.736         138.196         137.716         139.098         140.366         141.319         142.082         142.706         143.222    
          143.663         144.035         144.345         144.602         144.813         144.998         145.166         145.322         145.473         145.599    
          145.698         145.761         145.778         145.766         145.744         145.786         145.880       -1.000000E+30   -1.000000E+30   -1.000000E+30
        -1.000000E+30   -1.000000E+30   -1.000000E+30   -1.000000E+30   -1.000000E+30     143.320         143.804         144.206         144.530         144.801    
          145.037         145.244         145.420         145.561         145.667         145.736         145.768         145.763         145.721         145.642    
          145.526         145.372         145.188         144.994         144.796         144.587         144.357         144.090         143.790         143.460    
          143.098         142.704         142.274         141.811         141.318         140.796         140.245         139.658         138.964         138.285    
          137.709         138.322         137.723         139.110         140.361         141.256         141.939         142.497         142.965         143.358    
          143.682         143.941         144.144         144.292         144.405         144.503         144.604         144.718         144.856         144.973    
          145.034         144.993         144.917         144.816         144.892         145.378       -1.000000E+30   -1.000000E+30   -1.000000E+30   -1.000000E+30
        -1.000000E+30   -1.000000E+30   -1.000000E+30   -1.000000E+30     143.442         143.934         144.298         144.600         144.867         145.104    
          145.316         145.493         145.634         145.740         145.807         145.838         145.833         145.793         145.717         145.605    
          145.459         145.293         145.117         144.930         144.725         144.487         144.209         143.896         143.543         143.149    
          142.710         142.225         141.695         141.120         140.481         139.772         138.981         138.355         137.807         138.287    
          137.845         139.180         140.349         141.175         141.792         142.287         142.702         143.039         143.309         143.511    
          143.646         143.720         143.740         143.738         143.743         143.814         143.996         144.128         144.192         144.286    
          144.253         143.816         143.686         144.183         144.034         143.648         143.669         143.790         143.739         143.818    
          143.831         143.701         143.680         143.789         143.762       -1.000000E+30   -1.000000E+30   -1.000000E+30   -1.000000E+30   -1.000000E+30
        -1.000000E+30   -1.000000E+30   -1.000000E+30   -1.000000E+30   -1.000000E+30   -1.000000E+30   -1.000000E+30   -1.000000E+30   -1.000000E+30   -1.000000E+30
        -1.000000E+30   -1.000000E+30   -1.000000E+30   -1.000000E+30   -1.000000E+30   -1.000000E+30   -1.000000E+30   -1.000000E+30   -1.000000E+30     143.643    
          144.047         144.382         144.673         144.934         145.172         145.383         145.561         145.705         145.810         145.877    
          145.907         145.904         145.866         145.793         145.685         145.550         145.398         145.234         145.048         144.831    
          144.573         144.274         143.929         143.538         143.095         142.594         142.034         141.402         140.659         139.747    
          138.667         137.946         138.113         137.887         138.526         139.401         140.363         141.061         141.607         142.054    
          142.417         142.702         142.919         143.062         143.123         143.106         143.008         142.843         142.651         142.847    
          142.967         142.044         142.176         143.152         143.264         142.481         142.730         143.257         143.433         143.164    
          143.388         143.517         143.562         143.550         143.632         143.639         143.753         143.730         143.798         143.865    
          143.951       -1.000000E+30   -1.000000E+30   -1.000000E+30   -1.000000E+30   -1.000000E+30   -1.000000E+30   -1.000000E+30   -1.000000E+30   -1.000000E+30
        -1.000000E+30   -1.000000E+30   -1.000000E+30   -1.000000E+30   -1.000000E+30   -1.000000E+30   -1.000000E+30   -1.000000E+30   -1.000000E+30   -1.000000E+30
        -1.000000E+30   -1.000000E+30   -1.000000E+30     143.770         144.143         144.462         144.744         145.002         145.236         145.446    
          145.632         145.777         145.879         145.943         145.974         145.971         145.935         145.864         145.762         145.635    
          145.491         145.324         145.126         144.886         144.599         144.262         143.873         143.433         142.927         142.350    
          141.682         140.843         139.603         138.032         137.732         137.857         138.152         138.080         138.806         138.551    
          138.992         139.621         140.337         140.921         141.400         141.787         142.095         142.329         142.498         142.592    
          142.591         142.466         142.174         142.080         141.896         141.555         141.163         141.609         141.486         141.194    
          141.693         142.052         142.377         142.180         142.464         142.840         143.312         143.625         143.825         143.953    
          144.020       -1.000000E+30   -1.000000E+30   -1.000000E+30   -1.000000E+30   -1.000000E+30   -1.000000E+30   -1.000000E+30   -1.000000E+30   -1.000000E+30
        -1.000000E+30   -1.000000E+30   -1.000000E+30   -1.000000E+30   -1.000000E+30   -1.000000E+30   -1.000000E+30     143.867         144.222         144.534    
          144.815         145.069         145.300         145.519         145.708         145.845         145.941         146.003         146.033         146.031    
          145.994         145.926         145.828         145.705         145.556         145.373         145.147         144.871         144.541         144.155    
          143.715         143.218         142.649         141.989         141.144         139.803         137.866         138.274         138.029         138.078    
          138.941         139.680         140.258         140.758         141.167         141.490         141.738         141.921         142.043         142.098    
          142.043         141.787         141.556         141.268         141.115         140.620         140.804         141.000         140.891         141.235    
          141.799         142.469         142.952         143.342         143.628         143.829         143.957       -1.000000E+30   -1.000000E+30   -1.000000E+30
        -1.000000E+30   -1.000000E+30   -1.000000E+30   -1.000000E+30   -1.000000E+30   -1.000000E+30   -1.000000E+30   -1.000000E+30   -1.000000E+30   -1.000000E+30
        -1.000000E+30   -1.000000E+30   -1.000000E+30   -1.000000E+30   -1.000000E+30     143.942         144.288         144.597         144.880         145.138    
          145.378         145.602         145.776         145.901         145.993         146.054         146.082         146.077         146.039         145.971    
          145.872         145.741         145.571         145.355         145.087         144.764         144.385         143.955         143.475         142.935    
          142.332         141.534         140.340         138.789         137.890         139.150         138.167         138.552         138.992         138.281    
          138.894         139.531         140.095         140.548         140.899         141.160         141.345         141.468         141.544         141.571    
          141.472         141.072         140.499         140.470         140.163         140.693         141.351         142.037         142.567         143.000    
          143.342         143.597         143.777       -1.000000E+30   -1.000000E+30   -1.000000E+30   -1.000000E+30   -1.000000E+30   -1.000000E+30   -1.000000E+30
        -1.000000E+30   -1.000000E+30   -1.000000E+30   -1.000000E+30   -1.000000E+30     143.997         144.335         144.650         144.943         145.214    
          145.464         145.671         145.825         145.945         146.036         146.095         146.120         146.111         146.069         145.995    
          145.882         145.726         145.520         145.259         144.937         144.564         144.150         143.695         143.196         142.659    
          141.960         140.971         139.645         138.242         138.729         138.757         138.386         139.248         139.849         140.277    
          140.575         140.764         140.867         140.899         140.914         140.916         140.808         140.668         140.455         140.363    
          140.040         140.045         140.801         140.186         140.886         141.553         142.152         142.627         143.010         143.306    
          143.519       -1.000000E+30   -1.000000E+30   -1.000000E+30   -1.000000E+30   -1.000000E+30   -1.000000E+30   -1.000000E+30   -1.000000E+30   -1.000000E+30
        -1.000000E+30   -1.000000E+30   -1.000000E+30   -1.000000E+30     144.018         144.367         144.696         145.008         145.289         145.528    
          145.714         145.864         145.984         146.073         146.128         146.148         146.133         146.081         145.987         145.844    
          145.651         145.396         145.065         144.688         144.292         143.868         143.411         142.932         142.342         141.545    
          140.571         139.493         138.890         139.965         139.555         138.654         139.092         139.089         138.908         139.532    
          139.951         140.179         140.264         140.245         140.330         140.284         139.938         139.770         140.191         140.144    
          139.386         139.310         140.137         140.151         139.318         139.399         140.128         140.097         139.495         139.558    
          139.925         139.923         139.884         140.431         141.004         141.740         142.256         142.669         142.990         143.224    
        -1.000000E+30   -1.000000E+30   -1.000000E+30   -1.000000E+30   -1.000000E+30   -1.000000E+30   -1.000000E+30   -1.000000E+30   -1.000000E+30   -1.000000E+30
        -1.000000E+30   -1.000000E+30   -1.000000E+30   -1.000000E+30     144.006         144.397         144.746         145.063         145.339         145.565    
          145.749         145.900         146.019         146.103         146.152         146.164         146.136         146.060         145.930         145.752    
          145.516         145.140         144.734         144.371         143.983         143.559         143.110         142.635         142.017         141.284    
          140.507         139.686         139.285         140.087         139.797         139.109         139.344         139.420         139.175         139.557    
          139.674         139.765         139.731         139.367         139.215         139.676         139.462         139.203         139.312         139.267    
          139.296         139.660         139.800         140.003         140.278         140.553         140.958         141.482         141.964         142.350    
          142.692         142.926       -1.000000E+30   -1.000000E+30   -1.000000E+30   -1.000000E+30   -1.000000E+30   -1.000000E+30   -1.000000E+30   -1.000000E+30
        -1.000000E+30   -1.000000E+30   -1.000000E+30   -1.000000E+30   -1.000000E+30     144.026         144.440         144.795         145.108         145.374    
          145.596         145.783         145.933         146.046         146.123         146.164         146.163         146.109         145.981         145.830    
          145.691       -1.000000E+30     144.620         144.377         144.035         143.636         143.196         142.813         142.329         141.749    
          141.166         140.575         139.898         139.509         140.268         140.065         139.134         139.126         139.877         139.805    
          139.136         139.164         139.754         139.766         139.294         139.606         139.823         139.925         139.986         140.336    
          140.667         140.934         141.193         141.473         141.812         142.131         142.352       -1.000000E+30   -1.000000E+30   -1.000000E+30
        -1.000000E+30   -1.000000E+30   -1.000000E+30   -1.000000E+30   -1.000000E+30   -1.000000E+30   -1.000000E+30   -1.000000E+30   -1.000000E+30   -1.000000E+30
          144.083         144.486         144.839         145.147         145.410         145.632         145.813         145.953         146.058         146.133    
          146.171         146.162       -1.000000E+30   -1.000000E+30   -1.000000E+30   -1.000000E+30   -1.000000E+30   -1.000000E+30   -1.000000E+30   -1.000000E+30
          143.109         142.841         142.455         142.031         141.571         141.128         140.719         140.452         140.345         140.386    
          140.561         140.809         141.058         141.295         141.522         141.744         141.989         142.228         142.385       -1.000000E+30
        -1.000000E+30   -1.000000E+30   -1.000000E+30   -1.000000E+30   -1.000000E+30   -1.000000E+30   -1.000000E+30   -1.000000E+30   -1.000000E+30   -1.000000E+30
          144.121         144.518         144.874         145.184         145.447         145.656         145.820         145.948         146.069       -1.000000E+30
        -1.000000E+30   -1.000000E+30   -1.000000E+30   -1.000000E+30   -1.000000E+30   -1.000000E+30   -1.000000E+30   -1.000000E+30   -1.000000E+30   -1.000000E+30
        -1.000000E+30     142.409         142.138         141.778         141.403         141.064         140.828         140.722         140.742         140.868    
          141.062         141.273         141.486         141.678         141.818       -1.000000E+30   -1.000000E+30   -1.000000E+30   -1.000000E+30   -1.000000E+30
        -1.000000E+30   -1.000000E+30   -1.000000E+30   -1.000000E+30   -1.000000E+30   -1.000000E+30   -1.000000E+30     144.112         144.540         144.911    
          145.222         145.458         145.636         145.767       -1.000000E+30   -1.000000E+30   -1.000000E+30   -1.000000E+30   -1.000000E+30   -1.000000E+30
        -1.000000E+30   -1.000000E+30   -1.000000E+30   -1.000000E+30   -1.000000E+30   -1.000000E+30   -1.000000E+30   -1.000000E+30   -1.000000E+30   -1.000000E+30
        -1.000000E+30   -1.000000E+30   -1.000000E+30   -1.000000E+30   -1.000000E+30   -1.000000E+30   -1.000000E+30   -1.000000E+30   -1.000000E+30   -1.000000E+30
        -1.000000E+30   -1.000000E+30   -1.000000E+30   -1.000000E+30   -1.000000E+30   -1.000000E+30   -1.000000E+30   -1.000000E+30   -1.000000E+30   -1.000000E+30
          144.106         144.585         144.970         145.217         145.402         145.623       -1.000000E+30   -1.000000E+30   -1.000000E+30   -1.000000E+30
        -1.000000E+30   -1.000000E+30   -1.000000E+30   -1.000000E+30   -1.000000E+30   -1.000000E+30   -1.000000E+30   -1.000000E+30   -1.000000E+30   -1.000000E+30
        -1.000000E+30   -1.000000E+30   -1.000000E+30   -1.000000E+30   -1.000000E+30   -1.000000E+30   -1.000000E+30   -1.000000E+30   -1.000000E+30   -1.000000E+30
        -1.000000E+30   -1.000000E+30   -1.000000E+30   -1.000000E+30   -1.000000E+30   -1.000000E+30     144.198         144.733         144.913         145.009    
        -1.000000E+30   -1.000000E+30   -1.000000E+30   -1.000000E+30   -1.000000E+30   -1.000000E+30   -1.000000E+30   -1.000000E+30   -1.000000E+30   -1.000000E+30
        -1.000000E+30   -1.000000E+30     144.711         144.527         144.516       -1.000000E+30   -1.000000E+30   -1.000000E+30   -1.000000E+30   -1.000000E+30
        -1.000000E+30   -1.000000E+30   -1.000000E+30   -1.000000E+30   -1.000000E+30     143.713         143.721       -1.000000E+30   -1.000000E+30   -1.000000E+30
        -1.000000E+30   -1.000000E+30   -1.000000E+30   -1.000000E+30   -1.000000E+30
1
  HEAD IN LAYER   2 AT END OF TIME STEP  48 IN STRESS PERIOD    2
  ---------------------------------------------------------------------------

                1               2               3               4               5               6               7               8               9              10
               11              12              13              14              15              16              17              18              19              20
               21              22              23              24              25              26              27              28              29              30
               31              32              33              34              35              36              37              38              39              40
               41              42              43              44              45              46              47              48              49              50
               51              52              53              54              55              56              57              58              59              60
               61              62              63              64              65              66              67              68              69              70
               71              72              73              74              75              76              77              78              79              80
               81              82              83              84              85              86              87              88              89              90
               91              92              93              94              95              96              97              98              99             100
              101             102             103             104             105             106             107             108             109             110
              111             112             113             114             115             116             117             118             119             120
              121             122             123             124             125             126             127             128             129             130
              131             132             133             134             135             136             137             138             139             140
              141             142             143             144             145             146             147             148             149             150
              151             152             153             154             155             156             157             158             159             160
              161             162             163             164             165             166             167             168             169             170
              171             172             173             174             175             176             177             178             179             180
              181             182             183             184             185             186             187             188             189             190
              191             192             193             194             195             196             197             198             199             200
              201             202             203             204             205             206             207             208             209             210
              211             212             213             214             215             216             217             218             219             220
              221             222             223             224             225             226             227             228             229             230
              231             232             233             234             235             236             237             238             239             240
              241             242             243             244             245             246             247             248             249             250
              251             252             253             254             255             256             257             258             259             260
              261             262             263             264             265             266             267             268             269             270
              271             272             273             274             275             276             277             278             279             280
              281             282             283             284             285             286             287             288             289             290
              291             292             293             294             295             296             297             298             299             300
              301             302             303             304             305             306             307             308             309             310
              311             312             313             314             315             316             317             318             319             320
              321             322             323             324             325             326             327             328             329             330
              331             332             333             334             335             336             337             338             339             340
              341             342             343             344             345             346             347             348             349             350
              351             352             353             354             355             356             357             358             359             360
              361             362             363             364             365             366             367             368             369             370
              371             372             373             374             375             376             377             378             379             380
              381             382             383             384             385             386             387             388             389             390
              391             392             393             394             395             396             397             398             399             400
              401             402             403             404             405             406             407             408             409             410
              411             412             413             414             415             416             417             418             419             420
              421             422             423             424             425             426             427             428             429             430
              431             432             433             434             435             436             437             438             439             440
              441             442             443             444             445             446             447             448             449             450
              451             452             453             454             455             456             457             458             459             460
              461             462             463             464             465             466             467             468             469             470
              471             472             473             474             475             476             477             478             479             480
              481             482             483             484             485             486             487             488             489             490
              491             492             493             494             495             496             497             498             499             500
              501             502             503             504             505             506             507             508             509             510
              511             512             513             514             515             516             517             518             519             520
              521             522             523             524             525             526             527             528             529             530
              531             532             533             534             535             536             537             538             539             540
              541             542             543             544             545             546             547             548             549             550
              551             552             553             554             555             556             557             558             559             560
              561             562             563             564             565             566             567             568             569             570
              571             572             573             574             575             576             577             578             579             580
              581             582             583             584             585             586             587             588             589             590
              591             592             593             594             595             596             597             598             599             600
              601             602             603             604             605             606             607             608             609             610
              611             612             613             614             615             616             617             618             619             620
              621             622             623             624             625             626             627             628             629             630
              631             632             633             634             635             636             637             638             639             640
              641             642             643             644             645             646             647             648             649             650
              651             652             653             654             655             656             657             658             659             660
              661             662             663             664             665             666             667             668             669             670
              671             672             673             674             675             676             677             678             679             680
              681             682             683             684             685             686             687             688             689             690
              691             692             693             694             695             696             697             698             699             700
              701             702             703             704             705             706             707             708             709             710
              711             712             713             714             715             716             717             718             719             720
              721             722             723             724             725             726             727             728             729             730
              731             732             733             734             735             736             737             738             739             740
              741             742             743             744             745             746             747             748             749             750
              751             752             753             754             755             756             757             758             759             760
              761             762             763             764             765             766             767             768             769             770
              771             772             773             774             775             776             777             778             779             780
              781             782             783             784             785             786             787             788             789             790
              791             792             793             794             795             796             797             798             799             800
              801             802             803             804             805             806             807             808             809             810
              811             812             813             814             815             816             817             818             819             820
              821             822             823             824             825             826             827             828             829             830
              831             832             833             834             835             836             837             838             839             840
              841             842             843             844             845             846             847             848             849             850
              851             852             853             854             855             856             857             858             859             860
              861             862             863             864             865             866             867             868             869             870
              871             872             873             874             875             876             877             878             879             880
              881             882             883             884             885             886             887             888             889             890
              891             892             893             894             895             896             897             898             899             900
              901             902             903             904             905             906             907             908             909             910
              911             912             913             914             915             916             917             918             919             920
              921             922             923             924             925             926             927             928             929             930
              931             932             933             934             935             936             937             938             939             940
              941             942             943             944             945             946             947             948             949             950
              951             952             953             954             955             956             957             958             959             960
              961             962             963             964             965             966             967             968             969             970
              971             972             973             974             975             976             977             978             979             980
              981             982             983             984             985             986             987             988             989             990
              991             992             993             994             995             996             997             998             999            1000
             1001            1002            1003            1004            1005            1006            1007            1008            1009            1010
             1011            1012            1013            1014            1015            1016            1017            1018            1019            1020
             1021            1022            1023            1024            1025            1026            1027            1028            1029            1030
             1031            1032            1033            1034            1035            1036            1037            1038            1039            1040
             1041            1042            1043            1044            1045            1046            1047            1048            1049            1050
             1051            1052            1053            1054            1055            1056            1057            1058            1059            1060
             1061            1062            1063            1064            1065            1066            1067            1068            1069            1070
             1071            1072            1073            1074            1075            1076            1077            1078            1079            1080
             1081            1082            1083            1084            1085            1086            1087            1088            1089            1090
             1091            1092            1093            1094            1095            1096            1097            1098            1099            1100
             1101            1102            1103            1104            1105            1106            1107            1108            1109            1110
             1111            1112            1113            1114            1115            1116            1117            1118            1119            1120
             1121            1122            1123            1124            1125            1126            1127            1128            1129            1130
             1131            1132            1133            1134            1135            1136            1137            1138            1139            1140
             1141            1142            1143            1144            1145            1146            1147            1148            1149            1150
             1151            1152            1153            1154            1155            1156            1157            1158            1159            1160
             1161            1162            1163            1164            1165            1166            1167            1168            1169            1170
             1171            1172            1173            1174            1175            1176            1177            1178            1179            1180
             1181            1182            1183            1184            1185            1186            1187            1188            1189            1190
             1191            1192            1193            1194            1195            1196            1197            1198            1199            1200
             1201            1202            1203            1204            1205            1206            1207            1208            1209            1210
             1211            1212            1213            1214            1215            1216            1217            1218            1219            1220
             1221            1222            1223            1224            1225            1226            1227            1228            1229            1230
             1231            1232            1233            1234            1235            1236            1237            1238            1239            1240
             1241            1242            1243            1244            1245            1246            1247            1248            1249            1250
             1251            1252            1253            1254            1255            1256            1257            1258            1259            1260
             1261            1262            1263            1264            1265            1266            1267            1268            1269            1270
             1271            1272            1273            1274            1275            1276            1277            1278            1279            1280
             1281            1282            1283            1284            1285            1286            1287            1288            1289            1290
             1291            1292            1293            1294            1295            1296            1297            1298            1299            1300
             1301            1302            1303            1304            1305            1306            1307            1308            1309            1310
             1311            1312            1313            1314            1315            1316            1317            1318            1319            1320
             1321            1322            1323            1324            1325            1326            1327            1328            1329            1330
             1331            1332            1333            1334            1335            1336            1337            1338            1339            1340
             1341            1342            1343            1344            1345            1346            1347            1348            1349            1350
             1351            1352            1353            1354            1355            1356            1357            1358            1359            1360
             1361            1362            1363            1364            1365            1366            1367            1368            1369            1370
             1371            1372            1373            1374            1375            1376            1377            1378            1379            1380
             1381            1382            1383            1384            1385            1386            1387            1388            1389            1390
             1391            1392            1393            1394            1395            1396            1397            1398            1399            1400
             1401            1402            1403            1404            1405            1406            1407            1408            1409            1410
             1411            1412            1413            1414            1415            1416            1417            1418            1419            1420
             1421            1422            1423            1424            1425            1426            1427            1428            1429            1430
             1431            1432            1433            1434            1435            1436            1437            1438            1439            1440
             1441            1442            1443            1444            1445            1446            1447            1448            1449            1450
             1451            1452            1453            1454            1455            1456            1457            1458            1459            1460
             1461            1462            1463            1464            1465            1466            1467            1468            1469            1470
             1471            1472            1473            1474            1475            1476            1477            1478            1479            1480
             1481            1482            1483            1484            1485            1486            1487            1488            1489            1490
             1491            1492            1493            1494            1495            1496            1497            1498            1499            1500
             1501            1502            1503            1504            1505            1506            1507            1508            1509            1510
             1511            1512            1513            1514            1515            1516            1517            1518            1519            1520
             1521            1522            1523            1524            1525            1526            1527            1528            1529            1530
             1531            1532            1533            1534            1535            1536            1537            1538            1539            1540
             1541            1542            1543            1544            1545            1546            1547            1548            1549            1550
             1551            1552            1553            1554            1555            1556            1557            1558            1559            1560
             1561            1562            1563            1564            1565            1566            1567            1568            1569            1570
             1571            1572            1573            1574            1575            1576            1577            1578            1579            1580
             1581            1582            1583            1584            1585            1586            1587            1588            1589            1590
             1591            1592            1593            1594            1595            1596            1597            1598            1599            1600
             1601            1602            1603            1604            1605            1606            1607            1608            1609            1610
             1611            1612            1613            1614            1615            1616            1617            1618            1619            1620
             1621            1622            1623            1624            1625            1626            1627            1628            1629            1630
             1631            1632            1633            1634            1635            1636            1637            1638            1639            1640
             1641            1642            1643            1644            1645            1646            1647            1648            1649            1650
             1651            1652            1653            1654            1655            1656            1657            1658            1659            1660
             1661            1662            1663            1664            1665            1666            1667            1668            1669            1670
             1671            1672            1673            1674            1675            1676            1677            1678            1679            1680
             1681            1682            1683            1684            1685            1686            1687            1688            1689            1690
             1691            1692            1693            1694            1695            1696            1697            1698            1699            1700
             1701            1702            1703            1704            1705            1706            1707            1708            1709            1710
             1711            1712            1713            1714            1715            1716            1717            1718            1719            1720
             1721            1722            1723            1724            1725            1726            1727            1728            1729            1730
             1731            1732            1733            1734            1735            1736            1737            1738            1739            1740
             1741            1742            1743            1744            1745            1746            1747            1748            1749            1750
             1751            1752            1753            1754            1755            1756            1757            1758            1759            1760
             1761            1762            1763            1764            1765            1766            1767            1768            1769            1770
             1771            1772            1773            1774            1775            1776            1777            1778            1779            1780
             1781            1782            1783            1784            1785            1786            1787            1788            1789            1790
             1791            1792            1793            1794            1795            1796            1797            1798            1799            1800
             1801            1802            1803            1804            1805            1806            1807            1808            1809            1810
             1811            1812            1813            1814            1815            1816            1817            1818            1819            1820
             1821            1822            1823            1824            1825            1826            1827            1828            1829            1830
             1831            1832            1833            1834            1835            1836            1837            1838            1839            1840
             1841            1842            1843            1844            1845            1846            1847            1848            1849            1850
             1851            1852            1853            1854            1855            1856            1857            1858            1859            1860
             1861            1862            1863            1864            1865            1866            1867            1868            1869            1870
             1871            1872            1873            1874            1875            1876            1877            1878            1879            1880
             1881            1882            1883            1884            1885            1886            1887            1888            1889            1890
             1891            1892            1893            1894            1895            1896            1897            1898            1899            1900
             1901            1902            1903            1904            1905            1906            1907            1908            1909            1910
             1911            1912            1913            1914            1915            1916            1917            1918            1919            1920
             1921            1922            1923            1924            1925            1926            1927            1928            1929            1930
             1931            1932            1933            1934            1935            1936            1937            1938            1939            1940
             1941            1942            1943            1944            1945            1946            1947            1948            1949            1950
             1951            1952            1953            1954            1955            1956            1957            1958            1959            1960
             1961            1962            1963            1964            1965            1966            1967            1968            1969            1970
             1971            1972            1973            1974            1975            1976            1977            1978            1979            1980
             1981            1982            1983            1984            1985            1986            1987            1988            1989            1990
             1991            1992            1993            1994            1995            1996            1997            1998            1999            2000
             2001            2002            2003            2004            2005            2006            2007            2008            2009            2010
             2011            2012            2013            2014            2015            2016            2017            2018            2019            2020
             2021            2022            2023            2024            2025            2026            2027            2028            2029            2030
             2031            2032            2033            2034            2035            2036            2037            2038            2039            2040
             2041            2042            2043            2044            2045            2046            2047            2048            2049            2050
             2051            2052            2053            2054            2055            2056            2057            2058            2059            2060
             2061            2062            2063            2064            2065            2066            2067            2068            2069            2070
             2071            2072            2073            2074            2075            2076            2077            2078            2079            2080
             2081            2082            2083            2084            2085            2086            2087            2088            2089            2090
             2091            2092            2093            2094            2095            2096            2097            2098            2099            2100
             2101            2102            2103            2104            2105            2106            2107            2108            2109            2110
             2111            2112            2113            2114            2115            2116            2117            2118            2119            2120
             2121            2122            2123            2124            2125            2126            2127            2128            2129            2130
             2131            2132            2133            2134            2135            2136            2137            2138            2139            2140
             2141            2142            2143            2144            2145            2146            2147            2148            2149            2150
             2151            2152            2153            2154            2155            2156            2157            2158            2159            2160
             2161            2162            2163            2164            2165            2166            2167            2168            2169            2170
             2171            2172            2173            2174            2175            2176            2177            2178            2179            2180
             2181            2182            2183            2184            2185            2186            2187            2188            2189            2190
             2191            2192            2193            2194            2195            2196            2197            2198            2199            2200
             2201            2202            2203            2204            2205            2206            2207            2208            2209            2210
             2211            2212            2213            2214            2215            2216            2217            2218            2219            2220
             2221            2222            2223            2224            2225            2226            2227            2228            2229            2230
             2231            2232            2233            2234            2235            2236            2237            2238            2239            2240
             2241            2242            2243            2244            2245            2246            2247            2248            2249            2250
             2251            2252            2253            2254            2255            2256            2257            2258            2259            2260
             2261            2262            2263            2264            2265            2266            2267            2268            2269            2270
             2271            2272            2273            2274            2275            2276            2277            2278            2279            2280
             2281            2282            2283            2284            2285            2286            2287            2288            2289            2290
             2291            2292            2293            2294            2295            2296            2297            2298            2299            2300
             2301            2302            2303            2304            2305            2306            2307            2308            2309            2310
             2311            2312            2313            2314            2315            2316            2317            2318            2319            2320
             2321            2322            2323            2324            2325            2326            2327            2328            2329            2330
             2331            2332            2333            2334            2335            2336            2337            2338            2339            2340
             2341            2342            2343            2344            2345            2346            2347            2348            2349            2350
             2351            2352            2353            2354            2355            2356            2357            2358            2359            2360
             2361            2362            2363            2364            2365            2366            2367            2368            2369            2370
             2371            2372            2373            2374            2375            2376            2377            2378            2379            2380
             2381            2382            2383            2384            2385            2386            2387            2388            2389            2390
             2391            2392            2393            2394            2395            2396            2397            2398            2399            2400
             2401            2402            2403            2404            2405            2406            2407            2408            2409            2410
             2411            2412            2413            2414            2415            2416            2417            2418            2419            2420
             2421            2422            2423            2424            2425            2426            2427            2428            2429            2430
             2431            2432            2433            2434            2435            2436            2437            2438            2439            2440
             2441            2442            2443            2444            2445            2446            2447            2448            2449            2450
             2451            2452            2453            2454            2455            2456            2457            2458            2459            2460
             2461            2462            2463            2464            2465            2466            2467            2468            2469            2470
             2471            2472            2473            2474            2475            2476            2477            2478            2479            2480
             2481            2482            2483            2484            2485            2486            2487            2488            2489            2490
             2491            2492            2493            2494            2495            2496            2497            2498            2499            2500
             2501            2502            2503            2504            2505            2506            2507            2508            2509            2510
             2511            2512            2513            2514            2515            2516            2517            2518            2519            2520
             2521            2522            2523            2524            2525            2526            2527            2528            2529            2530
             2531            2532            2533            2534            2535            2536            2537            2538            2539            2540
             2541            2542            2543            2544            2545            2546            2547            2548            2549            2550
             2551            2552            2553            2554            2555            2556            2557            2558            2559            2560
             2561            2562            2563            2564            2565            2566            2567            2568            2569            2570
             2571            2572            2573            2574            2575            2576            2577            2578            2579            2580
             2581            2582            2583            2584            2585            2586            2587            2588            2589            2590
             2591            2592            2593            2594            2595            2596            2597            2598            2599            2600
             2601            2602            2603            2604            2605            2606            2607            2608            2609            2610
             2611            2612            2613            2614            2615            2616            2617            2618            2619            2620
             2621            2622            2623            2624            2625            2626            2627            2628            2629            2630
             2631            2632            2633            2634            2635            2636            2637            2638            2639            2640
             2641            2642            2643            2644            2645            2646            2647            2648            2649            2650
             2651            2652            2653            2654            2655            2656            2657            2658            2659            2660
             2661            2662            2663            2664            2665            2666            2667            2668            2669            2670
             2671            2672            2673            2674            2675            2676            2677            2678            2679            2680
             2681            2682            2683            2684            2685            2686            2687            2688            2689            2690
             2691            2692            2693            2694            2695            2696            2697            2698            2699            2700
             2701            2702            2703            2704            2705            2706            2707            2708            2709            2710
             2711            2712            2713            2714            2715            2716            2717            2718            2719            2720
             2721            2722            2723            2724            2725            2726            2727            2728            2729            2730
             2731            2732            2733            2734            2735            2736            2737            2738            2739            2740
             2741            2742            2743            2744            2745            2746            2747            2748            2749            2750
             2751            2752            2753            2754            2755            2756            2757            2758            2759            2760
             2761            2762            2763            2764            2765            2766            2767            2768            2769            2770
             2771            2772            2773            2774            2775            2776            2777            2778            2779            2780
             2781            2782            2783            2784            2785            2786            2787            2788            2789            2790
             2791            2792            2793            2794            2795            2796            2797            2798            2799            2800
             2801            2802            2803            2804            2805            2806            2807            2808            2809            2810
             2811            2812            2813            2814            2815            2816            2817            2818            2819            2820
             2821            2822            2823            2824            2825            2826            2827            2828            2829            2830
             2831            2832            2833            2834            2835            2836            2837            2838            2839            2840
             2841            2842            2843            2844            2845            2846            2847            2848            2849            2850
             2851            2852            2853            2854            2855            2856            2857            2858            2859            2860
             2861            2862            2863            2864            2865            2866            2867            2868            2869            2870
             2871            2872            2873            2874            2875            2876            2877            2878            2879            2880
             2881            2882            2883            2884            2885            2886            2887            2888            2889            2890
             2891            2892            2893            2894            2895            2896            2897            2898            2899            2900
             2901            2902            2903            2904            2905            2906            2907            2908            2909            2910
             2911            2912            2913            2914            2915            2916            2917            2918            2919            2920
             2921            2922            2923            2924            2925            2926            2927            2928            2929            2930
             2931            2932            2933            2934            2935            2936            2937            2938            2939            2940
             2941            2942            2943            2944            2945            2946            2947            2948            2949            2950
             2951            2952            2953            2954            2955            2956            2957            2958            2959            2960
             2961            2962            2963            2964            2965            2966            2967            2968            2969            2970
             2971            2972            2973            2974            2975            2976            2977            2978            2979            2980
             2981            2982            2983            2984            2985            2986            2987            2988            2989            2990
             2991            2992            2993            2994            2995            2996            2997            2998            2999            3000
             3001            3002            3003            3004            3005            3006            3007            3008            3009            3010
             3011            3012            3013            3014            3015            3016            3017            3018            3019            3020
             3021            3022            3023            3024            3025            3026            3027            3028            3029            3030
             3031            3032            3033            3034            3035            3036            3037            3038            3039            3040
             3041            3042            3043            3044            3045            3046            3047            3048            3049            3050
             3051            3052            3053            3054            3055            3056            3057            3058            3059            3060
             3061            3062            3063            3064            3065            3066            3067            3068            3069            3070
             3071            3072            3073            3074            3075            3076            3077            3078            3079            3080
             3081            3082            3083            3084            3085            3086            3087            3088            3089            3090
             3091            3092            3093            3094            3095            3096            3097            3098            3099            3100
             3101            3102            3103            3104            3105            3106            3107            3108            3109            3110
             3111            3112            3113            3114            3115            3116            3117            3118            3119            3120
             3121            3122            3123            3124            3125            3126            3127            3128            3129            3130
             3131            3132            3133            3134            3135
 ................................................................................................................................................................
   1      138.477         138.220         137.795         137.252         136.786         136.535         136.830         136.573         136.269         136.100    
          136.085         136.164         136.297         136.458         136.632         136.811         136.989         137.163         137.322         137.459    
          137.573         137.663         137.721         139.124         138.811         138.478         138.046         137.513         136.978         136.693    
          137.130         136.900         136.448         136.313         136.623         136.415         136.191         136.151         136.221         136.356    
          136.525         136.710         136.900         137.085         137.259         137.417         137.556         137.677         137.779         137.866    
          137.965         139.638         139.417         139.153         138.834         138.430         137.943         137.390         136.868         136.617    
          137.079         136.879         136.409         136.308         136.618         136.469         136.250         136.234         136.352         136.298    
          136.282         136.399         136.569         136.762         136.962         137.158         137.342         137.506         137.653         137.784    
          137.899         138.002         138.098         138.193         140.096         139.922         139.742         139.518         139.234         138.876    
          138.446         137.959         137.439         136.925         136.506         136.395         136.672         136.549         136.357         136.356    
          136.450         136.413         136.427         136.571         136.760         136.966         137.172         137.367         137.544         137.705    
          137.852         137.985         138.106         138.216         138.316         138.413         140.479         140.350         140.228         140.085    
          139.897         139.653         139.343         138.970         138.541         138.065         137.554         137.022         136.605         136.504    
          136.774         136.657         136.479         136.484         136.567         136.535         136.561         136.719         136.917         137.124    
          137.326         137.516         137.694         137.863         138.021         138.168         138.303         138.425         138.537         138.648    
          140.774         140.691         140.621         140.540         140.430         140.278         140.073         139.809         139.488         139.114    
          138.686         138.207         137.682         137.143         136.724         136.624         136.901         136.783         136.597         136.602    
          136.685         136.652         136.686         136.848         137.035         137.229         137.425         137.618         137.811         137.999    
          138.181         138.350         138.507         138.652         138.787         138.922         140.978         140.939         140.916         140.889    
          140.843         140.765         140.646         140.478         140.257         139.984         139.662         139.286         138.853         138.366    
          137.835         137.295         136.865         136.755         137.066         136.948         136.733         136.740         136.849         136.813    
          136.824         136.950         137.103         137.286         137.485         137.697         137.919         138.141         138.355         138.555    
          138.742         138.919         139.089         139.261         141.099         141.095         141.114         141.137         141.147         141.132    
          141.084         140.996         140.863         140.682         140.453         140.178         139.854         139.475         139.041         138.557    
          138.035         137.514         137.074         136.959         137.327         137.217         136.928         136.910         137.108         137.027    
          136.947         137.000         137.135         137.317         137.534         137.785         138.051         138.314         138.564         138.802    
          139.028         139.247         139.469         139.703         141.029         141.119         141.202         141.281         141.347         141.391    
          141.406         141.386         141.328         141.228         141.084         140.895         140.663         140.386         140.060         139.682    
          139.257         138.791         138.309         137.850         137.430         137.275         137.712         137.596         137.163         137.089    
          137.433         137.330         137.043         137.031         137.205         137.142         137.059         137.086         137.098         137.095    
          137.166         137.347         137.612         137.919         138.230         138.533         138.823         139.102         139.376         139.659    
          139.971         140.386         140.734         141.043         141.328         141.600         141.860         142.109         142.349         142.583    
          142.812         143.037         143.258         143.473         143.682         143.886         144.083         144.275         144.458         144.624    
          144.772         144.892         144.977         145.019         145.012         144.961         144.948         145.059         145.403         146.218    
          146.773         147.191         147.520         147.779         147.990         148.160         148.257         141.078         141.187         141.318    
          141.442         141.546         141.621         141.664         141.671         141.641         141.571         141.461         141.309         141.116    
          140.880         140.600         140.276         139.907         139.501         139.070         138.638         138.229         137.865         137.531    
          137.240         137.155         137.407         137.323         137.130         137.135         137.209         137.175         137.189         137.253    
          137.166         137.212         137.425         137.762         138.114         138.462         138.802         139.132         139.457         139.785    
          140.119         140.470         140.802         141.110         141.396         141.670         141.932         142.186         142.432         142.673    
          142.909         143.144         143.376         143.603         143.826         144.045         144.257         144.462         144.655         144.834    
          144.997         145.132         145.239         145.314         145.371         145.451         145.543         145.717         146.029         146.500    
          146.935         147.305         147.614         147.864         148.070         148.240         148.349         148.428         141.157         141.281    
          141.441         141.599         141.735         141.840         141.909         141.941         141.936         141.894         141.812         141.693    
          141.535         141.336         141.097         140.819         140.502         140.146         139.763         139.364         138.961         138.562    
          138.164         137.781         137.460         137.248         137.209         137.360         137.284         137.311         137.611         137.977    
          138.357         138.737         139.113         139.486         139.854         140.208         140.551         140.881         141.189         141.477    
          141.754         142.020         142.279         142.533         142.783         143.030         143.279         143.526         143.769         144.010    
          144.248         144.480         144.704         144.916         145.116         145.299         145.458         145.592         145.703         145.801    
          145.912         146.043         146.232         146.499         146.837         147.184         147.505         147.795         148.038         148.242    
          148.392         148.472         148.513         148.565         141.252         141.388         141.570         141.753         141.915         142.046    
          142.142         142.197         142.215         142.195         142.139         142.048         141.920         141.755         141.552         141.311    
          141.038         140.727         140.385         140.019         139.634         139.231         138.814         138.387         137.972         137.590    
          137.445         137.770         137.648         137.359         137.343         137.503         137.425         137.498         137.833         138.222    
          138.630         139.046         139.463         139.872         140.251         140.604         140.940         141.251         141.543         141.823    
          142.092         142.357         142.618         142.878         143.138         143.400         143.663         143.924         144.185         144.443    
          144.697         144.943         145.177         145.401         145.608         145.793         145.955         146.096         146.223         146.346    
          146.483         146.670         146.908         147.184         147.476         147.768         148.056         148.307         148.545         148.633    
          148.636         148.630         148.634         148.645         141.356         141.501         141.700         141.903         142.088         142.242    
          142.360         142.439         142.477         142.478         142.444         142.377         142.276         142.140         141.968         141.762    
          141.523         141.250         140.944         140.608         140.244         139.852         139.433         138.992         138.536         138.084    
          137.703         137.562         137.863         137.740         137.502         137.527         137.606         137.574         137.711         138.067    
          138.483         138.929         139.390         139.841         140.248         140.618         140.963         141.281         141.577         141.859    
          142.131         142.399         142.669         142.938         143.210         143.486         143.764         144.044         144.325         144.605    
          144.881         145.150         145.407         145.655         145.888         146.097         146.285         146.455         146.613         146.761    
          146.880         147.062         147.295         147.530         147.788         148.076         148.390         148.670         149.111         149.003    
          148.863         148.771         148.706         148.664         148.637         141.462         141.616         141.827         142.047         142.251    
          142.425         142.563         142.662         142.722         142.743         142.730         142.683         142.604         142.493         142.349    
          142.172         141.964         141.723         141.448         141.140         140.799         140.424         140.014         139.573         139.105    
          138.622         138.150         137.780         137.666         137.923         137.814         137.661         137.710         137.714         137.723    
          137.904         138.297         138.764         139.269         139.759         140.198         140.588         140.945         141.269         141.569    
          141.852         142.124         142.396         142.671         142.948         143.231         143.521         143.815         144.115         144.417    
          144.720         145.019         145.310         145.591         145.863         146.120         146.353         146.564         146.757         146.933    
          147.090         147.224         147.420         147.702         147.870         148.109         148.409         148.806         149.028         149.434    
          149.445         149.099         148.897         148.766         148.677         148.619         148.575         141.566         141.727         141.949    
          142.183         142.402         142.593         142.748         142.866         142.946         142.988         142.994         142.964         142.905    
          142.814         142.694         142.543         142.362         142.149         141.901         141.620         141.303         140.948         140.555    
          140.125         139.661         139.168         138.664         138.185         137.843         137.753         137.952         137.849         137.772    
          137.844         137.767         137.815         138.074         138.545         139.093         139.631         140.104         140.514         140.881    
          141.211         141.513         141.795         142.067         142.340         142.617         142.900         143.193         143.497         143.809    
          144.129         144.455         144.781         145.104         145.419         145.722         146.018         146.298         146.554         146.787    
          147.002         147.196         147.367         147.518         147.712         147.942         148.161         148.410         148.705         149.029    
          149.402         149.623         149.583         149.212         148.963         148.793         148.674         148.592         148.534         148.490    
          141.667         141.832         142.063         142.309         142.541         142.745         142.915         143.050         143.147         143.209    
          143.233         143.222         143.179         143.107         143.007         142.879         142.722         142.533         142.311         142.055    
          141.762         141.429         141.057         140.646         140.193         139.704         139.188         138.665         138.170         137.837    
          137.792         137.922         137.841         137.874         137.988         137.831         137.933         138.285         138.863         139.455    
          139.967         140.398         140.772         141.105         141.407         141.687         141.954         142.223         142.500         142.787    
          143.089         143.407         143.739         144.083         144.434         144.786         145.134         145.473         145.800         146.119    
          146.420         146.697         146.953         147.191         147.409         147.607         147.787         147.995         148.221         148.455    
          148.716         149.069         149.354         149.592         149.680         149.592         149.229         148.967         148.779         148.644    
          148.549         148.487         148.453         141.761         141.930         142.167         142.421         142.663         142.879         143.062    
          143.212         143.326         143.404         143.448         143.455         143.429         143.374         143.292         143.183         143.047    
          142.882         142.684         142.451         142.181         141.871         141.521         141.131         140.698         140.223         139.709    
          139.172         138.630         138.123         137.855         137.871         137.915         137.882         138.027         138.209         137.956    
          138.147         138.608         139.238         139.792         140.244         140.622         140.952         141.249         141.524         141.784    
          142.043         142.312         142.601         142.912         143.247         143.602         143.972         144.353         144.735         145.111    
          145.476         145.827         146.166         146.488         146.786         147.064         147.325         147.571         147.810         148.052    
          148.291         148.526         148.760         148.996         149.243         149.469         149.622         149.643         149.526         149.177    
          148.918         148.726         148.585         148.486         148.422         148.391         141.847         142.019         142.261         142.519    
          142.768         142.993         143.188         143.351         143.480         143.575         143.636         143.662         143.655         143.617    
          143.552         143.462         143.344         143.199         143.023         142.814         142.568         142.282         141.954         141.586    
          141.174         140.718         140.216         139.679         139.119         138.563         138.084         137.948         138.071         137.962    
          138.042         138.390         139.002         139.583         140.052         140.433         140.756         141.041         141.302         141.549    
          141.794         142.051         142.336         142.657         143.012         143.395         143.798         144.212         144.628         145.036    
          145.432         145.808         146.167         146.506         146.824         147.121         147.400         147.666         147.926         148.182    
          148.428         148.663         148.887         149.097         149.296         149.462         149.551         149.536         149.397         149.073    
          148.827         148.641         148.502         148.403         148.339         148.309         141.923         142.100         142.342         142.602    
          142.855         143.086         143.291         143.466         143.609         143.721         143.799         143.843         143.855         143.836    
          143.788         143.715         143.616         143.489         143.332         143.143         142.919         142.657         142.353         142.006    
          141.615         141.178         140.692         140.163         139.596         139.008         138.435         138.065         138.024         138.164    
          138.065         138.225         138.777         139.354         139.833         140.205         140.512         140.778         141.018         141.241    
          141.465         141.705         141.982         142.311         142.693         143.115         143.560         144.016         144.471         144.915    
          145.343         145.748         146.126         146.480         146.813         147.126         147.419         147.697         147.966         148.224    
          148.467         148.697         148.909         149.098         149.261         149.378         149.422         149.378         149.180         148.928    
          148.708         148.533         148.399         148.301         148.239         148.208         141.989         142.175         142.415         142.670    
          142.921         143.156         143.369         143.555         143.713         143.840         143.936         143.999         144.030         144.031    
          144.001         143.945         143.863         143.754         143.615         143.444         143.240         143.000         142.718         142.393    
          142.023         141.603         141.132         140.610         140.041         139.432         138.803         138.318         138.149         138.407    
          138.249         138.123         138.235         138.145         138.241         138.592         139.126         139.587         139.942         140.226    
          140.461         140.666         140.852         141.039         141.250         141.515         141.856         142.276         142.753         143.256    
          143.765         144.268         144.754         145.215         145.648         146.048         146.417         146.761         147.083         147.386    
          147.673         147.946         148.203         148.442         148.662         148.861         149.031         149.167         149.252         149.273    
          149.223         149.068         148.790         148.574         148.405         148.275         148.182         148.121         148.091         142.039    
          142.258         142.483         142.722         142.965         143.200         143.419         143.617         143.788         143.932         144.046    
          144.128         144.179         144.201         144.192         144.154         144.090         143.998         143.877         143.725         143.540    
          143.319         143.059         142.756         142.403         141.998         141.541         141.029         140.459         139.830         139.162    
          138.499         138.201         138.239         138.235         138.249         138.470         138.912         139.319         139.638         139.887    
          140.085         140.240         140.369         140.501         140.664         140.906         141.265         141.744         142.302         142.885    
          143.465         144.025         144.557         145.054         145.516         145.940         146.324         146.675         147.003         147.311    
          147.603         147.877         148.133         148.367         148.578         148.763         148.916         149.028         149.091         149.101    
          149.043         148.899         148.632         148.424         148.261         148.137         148.046         147.985         147.955         142.391    
          142.551         142.758         142.986         143.217         143.441         143.648         143.833         143.994         144.127         144.231    
          144.304         144.347         144.360         144.343         144.298         144.224         144.121         143.987         143.821         143.620    
          143.381         143.096         142.761         142.372         141.932         141.436         140.871         140.225         139.504         138.718    
          138.295         138.256         138.343         138.282         138.377         138.693         139.018         139.284         139.479         139.622    
          139.711         139.771         139.835         139.935         140.144         140.525         141.091         141.767         142.456         143.121    
          143.748         144.330         144.866         145.357         145.800         146.197         146.558         146.892         147.205         147.497    
          147.771         148.024         148.254         148.457         148.629         148.768         148.863         148.909         148.907         148.842    
          148.703         148.451         148.255         148.100         147.980         147.889         147.830         147.799         142.608         142.782    
          142.988         143.210         143.435         143.650         143.850         144.028         144.181         144.307         144.403         144.469    
          144.505         144.512         144.487         144.433         144.348         144.233         144.085         143.905         143.684         143.416    
          143.100         142.732         142.314         141.839         141.291         140.653         139.898         139.118         138.736         139.318    
          138.894         138.437         138.328         138.583         138.418         138.327         138.478         138.688         138.872         138.996    
          139.066         139.093         139.093         139.088         139.103         139.404         139.542         139.033         139.132         139.762    
          139.971         139.339         139.636         140.334         141.177         141.995         142.751         143.446         144.082         144.657    
          145.177         145.639         146.046         146.414         146.753         147.069         147.362         147.635         147.886         148.108    
          148.305         148.469         148.597         148.678         148.711         148.691         148.609         148.470         148.238         148.058    
          147.914         147.800         147.712         147.654         147.624         142.822         142.989         143.192         143.410         143.630    
          143.841         144.035         144.208         144.355         144.474         144.564         144.625         144.655         144.655         144.623    
          144.559         144.463         144.335         144.173         143.970         143.721         143.425         143.082         142.690         142.242    
          141.728         141.127         140.416         139.633         139.184         139.907         139.567         138.802         138.569         139.150    
          138.876         138.425         138.349         138.619         138.457         138.331         138.378         138.451         138.500         138.516    
          138.498         138.454         138.422         138.535         138.560         138.303         138.298         138.646         138.776         138.372    
          138.499         138.979         139.259         138.694         138.968         139.628         139.982         139.327         139.770         140.610    
          141.548         142.392         143.146         143.825         144.432         144.974         145.453         145.873         146.247         146.591    
          146.910         147.204         147.473         147.717         147.933         148.120         148.277         148.395         148.466         148.487    
          148.438         148.299         148.150         147.982         147.832         147.702         147.594         147.508         147.454         147.428    
          143.017         143.178         143.377         143.592         143.808         144.015         144.205         144.372         144.515         144.630    
          144.716         144.772         144.798         144.790         144.749         144.674         144.567         144.424         144.240         144.012    
          143.741         143.425         143.061         142.649         142.180         141.643         141.027         140.335         139.648         139.006    
          138.728         139.353         139.143         138.527         138.414         138.878         138.695         138.346         138.304         138.505    
          138.417         138.284         138.270         138.331         138.295         138.267         138.259         138.253         138.233         138.253    
          138.241         138.206         138.189         138.223         138.200         138.164         138.143         138.164         138.139         138.115    
          138.098         138.125         138.120         138.063         138.047         138.113         138.122         138.035         138.048         138.189    
          138.299         138.101         138.191         138.482         138.747         138.356         138.603         139.102         139.529         138.943    
          139.371         140.158         141.155         142.073         142.877         143.582         144.204         144.759         145.250         145.678    
          146.057         146.404         146.723         147.018         147.284         147.517         147.723         147.900         148.044         148.150    
          148.213         148.221         148.155         147.997         147.851         147.710         147.580         147.463         147.362         147.284    
          147.231         147.205         143.194         143.349         143.546         143.760         143.973         144.175         144.360         144.525    
          144.665         144.777         144.860         144.911         144.930         144.912         144.861         144.777         144.657         144.497    
          144.293         144.047         143.761         143.433         143.060         142.643         142.175         141.652         141.087         140.519    
          139.973         139.484         139.071         138.796         138.621         138.478         138.367         138.270         138.168         138.101    
          138.104         138.162         138.144         138.187         138.286         138.498         138.279         138.431         138.804         139.193    
          138.699         139.042         139.663         140.075         139.471         139.968         140.827         141.799         142.638         143.357    
          143.989         144.546         145.034         145.461         145.842         146.188         146.507         146.799         147.061         147.286    
          147.477         147.640         147.767         147.856         147.909         147.909         147.837         147.671         147.530         147.402    
          147.285         147.181         147.094         147.029         146.977         146.945         143.353         143.508         143.703         143.913    
          144.121         144.322         144.507         144.670         144.807         144.916         144.994         145.037         145.047         145.022    
          144.963         144.869         144.735         144.559         144.341         144.086         143.795         143.467         143.102         142.699    
          142.257         141.786         141.309         140.844         140.400         139.997         139.657         139.385         139.131         138.906    
          138.708         138.529         138.377         138.292         138.378         138.673         138.974         138.669         138.960         139.367    
          139.846         139.360         139.776         140.615         141.599         142.441         143.158         143.782         144.324         144.798    
          145.220         145.595         145.935         146.253         146.539         146.794         147.010         147.188         147.333         147.440    
          147.512         147.556         147.550         147.473         147.307         147.170         147.048         146.941         146.850         146.777    
          146.726         146.686         146.659         143.507         143.657         143.846         144.051         144.259         144.460         144.643    
          144.805         144.940         145.043         145.113         145.150         145.154         145.122         145.055         144.950         144.803    
          144.618         144.396         144.142         143.857         143.541         143.196         142.821         142.425         142.018         141.614    
          141.210         140.814         140.437         140.101         139.789         139.480         139.201         138.943         138.703         138.504    
          138.439         138.491         138.495         138.563         138.686         138.977         138.749         139.029         139.573         140.530    
          141.461         142.281         142.979         143.575         144.093         144.545         144.953         145.313         145.638         145.944    
          146.224         146.468         146.673         146.839         146.967         147.057         147.116         147.147         147.137         147.061    
          146.906         146.767         146.654         146.556         146.478         146.421         146.383         146.355         146.340         143.648    
          143.790         143.973         144.178         144.388         144.589         144.771         144.929         145.058         145.156         145.221    
          145.252         145.249         145.210         145.135         145.022         144.872         144.686         144.469         144.224         143.952    
          143.656         143.337         143.001         142.652         142.294         141.924         141.542         141.144         140.766         140.409    
          140.049         139.703         139.374         139.059         138.774         138.607         138.646         138.705         138.734         138.821    
          139.090         138.887         139.135         139.625         140.489         141.360         142.137         142.803         143.363         143.847    
          144.272         144.656         144.993         145.292         145.572         145.834         146.068         146.260         146.415         146.530    
          146.611         146.662         146.680         146.663         146.597         146.472         146.319         146.205         146.120         146.059    
          146.022         146.003         145.990         145.982         143.770         143.907         144.091         144.299         144.509         144.708    
          144.886         145.038         145.162         145.254         145.314         145.340         145.331         145.287         145.209         145.095    
          144.946         144.767         144.561         144.331         144.078         143.806         143.518         143.216         142.902         142.562    
          142.196         141.801         141.400         141.010         140.608         140.206         139.808         139.432         139.097         138.893    
          138.959         139.173         139.006         139.193         139.651         140.455         141.267         141.989         142.610         143.138    
          143.582         143.973         144.324         144.626         144.890         145.135         145.365         145.580         145.763         145.912    
          146.024         146.104         146.149         146.159         146.136         146.077         145.977         145.802         145.682         145.615    
          145.583         145.578         145.590         145.600         145.600         143.878         144.016         144.206         144.414         144.621    
          144.814         144.985         145.133         145.252         145.340         145.395         145.416         145.404         145.359         145.281    
          145.171         145.030         144.863         144.672         144.459         144.229         143.982         143.719         143.443         143.139    
          142.795         142.406         141.992         141.573         141.137         140.697         140.245         139.796         139.394         139.111    
          139.077         139.214         139.120         139.234         139.662         140.426         141.173         141.840         142.411         142.893    
          143.301         143.652         143.956         144.214         144.435         144.634         144.829         145.016         145.189         145.339    
          145.452         145.532         145.567         145.562         145.531         145.475         145.384         145.187         145.080         145.037    
          145.045         145.090         145.145         145.187         145.203         143.980         144.129         144.322         144.523         144.721    
          144.906         145.073         145.217         145.331         145.415         145.466         145.485         145.473         145.430         145.357    
          145.256         145.127         144.974         144.799         144.604         144.392         144.161         143.916         143.643         143.326    
          142.959         142.543         142.101         141.633         141.136         140.627         140.118         139.645         139.275         139.172    
          139.253         139.206         139.277         139.672         140.395         141.082         141.694         142.214         142.645         143.008    
          143.310         143.560         143.766         143.940         144.092         144.243         144.391         144.551         144.701         144.830    
          144.911         144.931         144.909         144.840         144.741         144.607         144.435         144.380         144.373         144.433    
          144.565         144.681         144.767         144.810         144.102         144.257         144.438         144.626         144.812         144.990    
          145.151         145.290         145.401         145.482         145.532         145.551         145.541         145.503         145.438         145.347    
          145.230         145.089         144.927         144.746         144.541         144.317         144.069         143.776         143.433         143.026    
          142.569         142.066         141.520         140.943         140.372         139.823         139.385         139.254         139.312         139.279    
          139.342         139.695         140.362         140.994         141.541         142.003         142.385         142.703         142.950         143.143    
          143.298         143.421         143.521         143.611         143.714         143.849         144.024         144.189         144.303         144.449    
          144.469         144.221         144.211         144.460         144.432         144.209         144.192         144.370         144.307         144.150    
          144.093         144.191         143.997         143.972         143.806         143.546         143.736         143.496         143.331         143.751    
          143.758         143.296         143.294         143.771         143.810         143.333         143.462         143.813         143.794         143.459    
          143.345         143.838         143.943         143.367         143.655         144.028         144.229         144.362         144.432         144.254    
          144.384         144.544         144.719         144.895         145.066         145.222         145.357         145.466         145.546         145.595    
          145.616         145.610         145.578         145.522         145.439         145.331         145.200         145.046         144.869         144.664    
          144.431         144.152         143.820         143.416         142.952         142.430         141.849         141.223         140.584         139.944    
          139.428         139.304         139.390         139.339         139.443         139.750         140.330         140.891         141.381         141.785    
          142.114         142.379         142.584         142.730         142.837         142.908         142.946         142.972         143.038         143.265    
          143.369         143.020         143.109         143.502         143.604         143.255         143.369         143.724         143.815         143.524    
          143.628         143.908         143.963         143.742         143.808         144.006         144.021         143.874         143.910         143.982    
          143.936         143.768         143.523         143.387         143.276         143.236         143.340         143.323         143.270         143.339    
          143.336         143.363         143.366         143.405         143.382         143.390         143.626         143.741         143.457         143.595    
          143.842         144.000         144.091         144.375         144.489         144.637         144.801         144.970         145.135         145.288    
          145.422         145.529         145.607         145.656         145.679         145.677         145.651         145.600         145.523         145.422    
          145.295         145.141         144.954         144.731         144.456         144.124         143.723         143.248         142.715         142.118    
          141.469         140.780         140.046         139.544         139.412         139.608         139.484         139.397         139.507         139.477    
          139.560         139.815         140.288         140.769         141.199         141.554         141.838         142.055         142.219         142.329    
          142.395         142.416         142.411         142.521         142.556         142.321         142.341         142.601         142.667         142.419    
          142.511         142.793         142.914         142.670         142.801         143.088         143.376         143.599         143.740         143.804    
          143.782         143.662         143.536         143.450         143.402         143.399         143.410         143.387         143.423         143.420    
          143.433         143.568         143.636         143.462         143.521         143.703         143.829         144.475         144.579         144.717    
          144.874         145.038         145.200         145.352         145.484         145.588         145.664         145.714         145.739         145.740    
          145.717         145.669         145.594         145.490         145.356         145.182         144.963         144.691         144.362         143.966    
          143.494         142.962         142.372         141.722         141.015         140.252         139.724         139.588         139.822         139.664    
          139.610         139.867         140.238         140.626         140.989         141.293         141.537         141.720         141.848         141.929    
          141.967         141.958         142.033         142.052         141.844         141.853         142.085         142.149         141.933         142.029    
          142.293         142.620         142.946         143.228         143.445         143.584         143.642         143.613         143.562         143.505    
          143.459         143.433         143.429         143.437         143.453         143.470         143.481         143.475         143.485         143.492    
          143.517         143.499         143.514         143.609         143.552         144.558         144.653         144.785         144.937         145.100    
          145.263         145.414         145.540         145.640         145.715         145.766         145.793         145.797         145.773         145.722    
          145.640         145.523         145.362         145.149         144.877         144.546         144.154         143.697         143.185         142.621    
          142.003         141.322         140.582         139.990         139.774         140.122         139.927         139.702         139.716         139.792    
          139.772         139.877         140.157         140.463         140.761         141.011         141.203         141.348         141.449         141.520    
          141.547         141.535         141.620         141.685         141.493         141.590         141.846         142.198         142.547         142.864    
          143.126         143.319         143.439         143.474         143.483         143.472         143.454         143.438         143.430         143.433    
          143.444         143.460         143.482         143.503         143.519         144.624         144.711         144.838         144.992         145.158    
          145.321         145.466         145.587         145.685         145.760         145.812         145.840         145.841         145.812         145.749    
          145.648         145.497         145.288         145.017         144.685         144.299         143.858         143.370         142.842         142.282    
          141.669         140.988         140.321         139.919         139.833         140.043         139.907         139.884         140.069         140.292    
          140.509         140.693         140.834         140.935         141.016         141.086         141.137         141.244         141.292         141.120    
          141.179         141.368         141.508         141.313         141.463         141.779         142.163         142.511         142.807         143.035    
          143.194         143.279         143.335         143.370         143.388         143.396         143.402         143.410         143.421         143.437    
          143.455         143.475         143.493         143.505         144.668         144.750         144.882         145.042         145.210         145.368    
          145.507         145.626         145.725         145.800         145.850         145.873         145.864         145.818         145.729         145.585    
          145.379         145.107         144.770         144.394         143.976         143.516         143.034         142.537         141.999         141.395    
          140.767         140.258         140.046         140.424         140.243         139.935         139.908         140.064         139.967         139.982    
          140.108         140.238         140.341         140.426         140.576         140.621         140.397         140.429         140.670         140.705    
          140.489         140.531         140.758         140.801         140.606         140.663         140.858         140.914         140.751         140.831    
          140.996         141.107         140.974         141.110         141.395         141.805         142.171         142.490         142.752         142.940    
          143.058         143.152         143.223         143.275         143.312         143.339         143.362         143.383         143.403         143.423    
          143.445         143.465         143.486         143.498         144.692         144.783         144.923         145.087         145.252         145.405    
          145.542         145.660         145.756         145.827         145.868         145.876         145.843         145.762         145.618         145.413    
          145.140         144.791         144.427         144.041         143.621         143.184         142.743         142.278         141.767         141.220    
          140.670         140.248         140.077         140.397         140.246         139.983         139.940         140.085         139.974         139.938    
          139.967         140.060         140.091         139.950         139.978         140.133         140.159         140.036         140.095         140.214    
          140.283         140.208         140.291         140.448         140.654         140.876         141.177         141.534         141.886         142.199    
          142.468         142.688         142.835         142.953         143.052         143.133         143.197         143.247         143.288         143.323    
          143.354         143.383         143.407         143.435         143.451         144.721         144.822         144.964         145.124         145.284    
          145.434         145.568         145.681         145.769         145.825         145.844         145.817         145.733         145.572         145.364    
          145.094         144.708         144.388         144.046         143.667         143.275         142.885         142.489         142.065         141.605    
          141.110         140.641         140.254         140.073         140.414         140.272         139.933         139.876         140.122         140.051    
          139.859         139.872         140.012         140.017         139.929         140.012         140.061         140.115         140.193         140.426    
          140.679         140.905         141.137         141.401         141.689         141.971         142.222         142.428         142.609         142.755    
          142.873         142.973         143.060         143.133         143.193         143.243         143.288         143.326         143.365         143.387    
          144.764         144.860         144.996         145.150         145.306         145.451         145.576         145.676         145.740         145.760    
          145.719         145.617         145.385         145.157         144.898         144.597         144.297         143.979         143.638         143.295    
          142.966         142.628         142.264         141.879         141.464         141.054         140.697         140.445         140.344         140.380    
          140.527         140.730         140.940         141.139         141.350         141.575         141.804         142.031         142.240         142.408    
          142.562         142.700         142.814         142.913         143.001         143.083         143.150         143.204         143.262         143.294    
          144.798         144.883         145.014         145.165         145.313         145.444         145.548         145.610         145.609         145.504    
          145.381         145.204         145.000         144.770         144.515         144.246         143.959         143.651         143.337         143.023    
          142.704         142.377         142.049         141.693         141.336         141.021         140.783         140.669         140.677         140.783    
          140.942         141.115         141.296         141.484         141.672         141.844         142.030         142.215         142.385         142.532    
          142.663         142.774         142.868         142.952         143.050         143.120         143.162         144.804         144.889         145.021    
          145.163         145.290         145.389         145.441         145.395         145.315         145.206         145.060         144.886         144.688    
          144.468         144.231         143.975         143.696         143.404         143.090         142.777         142.464         142.146         141.800    
          141.471         141.188         140.963         140.842         140.831         140.904         141.028         141.178         141.339         141.512    
          141.688         141.853         142.015         142.177         142.367         142.516         142.644         142.752         142.837         142.894    
          144.802         144.889         145.012         145.122         145.212         145.267         145.223         145.162         145.073         144.954    
          144.809         144.641         144.453         144.246         144.019         143.766         143.500         143.148         142.829         142.520    
          142.209         141.869         141.547         141.275         141.057         140.933         140.912         140.969         141.078         141.214    
          141.364         141.528         141.696         141.850         141.986         142.084         144.798         144.885         144.950         145.014    
          145.068         145.073         145.042         144.977         144.882         144.763         144.623         144.464         144.283         144.091    
          143.846         143.674         144.827         144.794         144.832         144.925         144.965         144.959         144.915         144.839    
          144.740         144.626         144.499         144.332         144.211         144.637         144.691         144.840         144.906         144.917    
          144.884         144.818         144.734         144.643         144.571    
1
  HEAD IN LAYER   3 AT END OF TIME STEP  48 IN STRESS PERIOD    2
  ---------------------------------------------------------------------------

                1               2               3               4               5               6               7               8               9              10
               11              12              13              14              15              16              17              18              19              20
               21              22              23              24              25              26              27              28              29              30
               31              32              33              34              35              36              37              38              39              40
               41              42              43              44              45              46              47              48              49              50
               51              52              53              54              55              56              57              58              59              60
               61              62              63              64              65              66              67              68              69              70
               71              72              73              74              75              76              77              78              79              80
               81              82              83              84              85              86              87              88              89              90
               91              92              93              94              95              96              97              98              99             100
              101             102             103             104             105             106             107             108             109             110
              111             112             113             114             115             116             117             118             119             120
              121             122             123             124             125             126             127             128             129             130
              131             132             133             134             135             136             137             138             139             140
              141             142             143             144             145             146             147             148             149             150
              151             152             153             154             155             156             157             158             159             160
              161             162             163             164             165             166             167             168             169             170
              171             172             173             174             175             176             177             178             179             180
              181             182             183             184             185             186             187             188             189             190
              191             192             193             194             195             196             197             198             199             200
              201             202             203             204             205             206             207             208             209             210
              211             212             213             214             215             216             217             218             219             220
              221             222             223             224             225             226             227             228             229             230
              231             232             233             234             235             236             237             238             239             240
              241             242             243             244             245             246             247             248             249             250
              251             252             253             254             255             256             257             258             259             260
              261             262             263             264             265             266             267             268             269             270
              271             272             273             274             275             276             277             278             279             280
              281             282             283             284             285             286             287             288             289             290
              291             292             293             294             295             296             297             298             299             300
              301             302             303             304             305             306             307             308             309             310
              311             312             313             314             315             316             317             318             319             320
              321             322             323             324             325             326             327             328             329             330
              331             332             333             334             335             336             337             338             339             340
              341             342             343             344             345             346             347             348             349             350
              351             352             353             354             355             356             357             358             359             360
              361             362             363             364             365             366             367             368             369             370
              371             372             373             374             375             376             377             378             379             380
              381             382             383             384             385             386             387             388             389             390
              391             392             393             394             395             396             397             398             399             400
              401             402             403             404             405             406             407             408             409             410
              411             412             413             414             415             416             417             418             419             420
              421             422             423             424             425             426             427             428             429             430
              431             432             433             434             435             436             437             438             439             440
              441             442             443             444             445             446             447             448             449             450
              451             452             453             454             455             456             457             458             459             460
              461             462             463             464             465             466             467             468             469             470
              471             472             473             474             475             476             477             478             479             480
              481             482             483             484             485             486             487             488             489             490
              491             492             493             494             495             496             497             498             499             500
              501             502             503             504             505             506             507             508             509             510
              511             512             513             514             515             516             517             518             519             520
              521             522             523             524             525             526             527             528             529             530
              531             532             533             534             535             536             537             538             539             540
              541             542             543             544             545             546             547             548             549             550
              551             552             553             554             555             556             557             558             559             560
              561             562             563             564             565             566             567             568             569             570
              571             572             573             574             575             576             577             578             579             580
              581             582             583             584             585             586             587             588             589             590
              591             592             593             594             595             596             597             598             599             600
              601             602             603             604             605             606             607             608             609             610
              611             612             613             614             615             616             617             618             619             620
              621             622             623             624             625             626             627             628             629             630
              631             632             633             634             635             636             637             638             639             640
              641             642             643             644             645             646             647             648             649             650
              651             652             653             654             655             656             657             658             659             660
              661             662             663             664             665             666             667             668             669             670
              671             672             673             674             675             676             677             678             679             680
              681             682             683             684             685             686             687             688             689             690
              691             692             693             694             695             696             697             698             699             700
              701             702             703             704             705             706             707             708             709             710
              711             712             713             714             715             716             717             718             719             720
              721             722             723             724             725             726             727             728             729             730
              731             732             733             734             735             736             737             738             739             740
              741             742             743             744             745             746             747             748             749             750
              751             752             753             754             755             756             757             758             759             760
              761             762             763             764             765             766             767             768             769             770
              771             772             773             774             775             776             777             778             779             780
              781             782             783             784             785             786             787             788             789             790
              791             792             793             794             795             796             797             798             799             800
              801             802             803             804             805             806             807             808             809             810
              811             812             813             814             815             816             817             818             819             820
              821             822             823             824             825             826             827             828             829             830
              831             832             833             834             835             836             837             838             839             840
              841             842             843             844             845             846             847             848             849             850
              851             852             853             854             855             856             857             858             859             860
              861             862             863             864             865             866             867             868             869             870
              871             872             873             874             875             876             877             878             879             880
              881             882             883             884             885             886             887             888             889             890
              891             892             893             894             895             896             897             898             899             900
              901             902             903             904             905             906             907             908             909             910
              911             912             913             914             915             916             917             918             919             920
              921             922             923             924             925             926             927             928             929             930
              931             932             933             934             935             936             937             938             939             940
              941             942             943             944             945             946             947             948             949             950
              951             952             953             954             955             956             957             958             959             960
              961             962             963             964             965             966             967             968             969             970
              971             972             973             974             975             976             977             978             979             980
              981             982             983             984             985             986             987             988             989             990
              991             992             993             994             995             996             997             998             999            1000
             1001            1002            1003            1004            1005            1006            1007            1008            1009            1010
             1011            1012            1013            1014            1015            1016            1017            1018            1019            1020
             1021            1022            1023            1024            1025            1026            1027            1028            1029            1030
             1031            1032            1033            1034            1035            1036            1037            1038            1039            1040
             1041            1042            1043            1044            1045            1046            1047            1048            1049            1050
             1051            1052            1053            1054            1055            1056            1057            1058            1059            1060
             1061            1062            1063            1064            1065            1066            1067            1068            1069            1070
             1071            1072            1073            1074            1075            1076            1077            1078            1079            1080
             1081            1082            1083            1084            1085            1086            1087            1088            1089            1090
             1091            1092            1093            1094            1095            1096            1097            1098            1099            1100
             1101            1102            1103            1104            1105            1106            1107            1108            1109            1110
             1111            1112            1113            1114            1115            1116            1117            1118            1119            1120
             1121            1122            1123            1124            1125            1126            1127            1128            1129            1130
             1131            1132            1133            1134            1135            1136            1137            1138            1139            1140
             1141            1142            1143            1144            1145            1146            1147            1148            1149            1150
             1151            1152            1153            1154            1155            1156            1157            1158            1159            1160
             1161            1162            1163            1164            1165            1166            1167            1168            1169            1170
             1171            1172            1173            1174            1175            1176            1177            1178            1179            1180
             1181            1182            1183            1184            1185            1186            1187            1188            1189            1190
             1191            1192            1193            1194            1195            1196            1197            1198            1199            1200
             1201            1202            1203            1204            1205            1206            1207            1208            1209            1210
             1211            1212            1213            1214            1215            1216            1217            1218            1219            1220
             1221            1222            1223            1224            1225            1226            1227            1228            1229            1230
             1231            1232            1233            1234            1235            1236            1237            1238            1239            1240
             1241            1242            1243            1244            1245            1246            1247            1248            1249            1250
             1251            1252            1253            1254            1255            1256            1257            1258            1259            1260
             1261            1262            1263            1264            1265            1266            1267            1268            1269            1270
             1271            1272            1273            1274            1275            1276            1277            1278            1279            1280
             1281            1282            1283            1284            1285            1286            1287            1288            1289            1290
             1291            1292            1293            1294            1295            1296            1297            1298            1299            1300
             1301            1302            1303            1304            1305            1306            1307            1308            1309            1310
             1311            1312            1313            1314            1315            1316            1317            1318            1319            1320
             1321            1322            1323            1324            1325            1326            1327            1328            1329            1330
             1331            1332            1333            1334            1335            1336            1337            1338            1339            1340
             1341            1342            1343            1344            1345            1346            1347            1348            1349            1350
             1351            1352            1353            1354            1355            1356            1357            1358            1359            1360
             1361            1362            1363            1364            1365            1366            1367            1368            1369            1370
             1371            1372            1373            1374            1375            1376            1377            1378            1379            1380
             1381            1382            1383            1384            1385            1386            1387            1388            1389            1390
             1391            1392            1393            1394            1395            1396            1397            1398            1399            1400
             1401            1402            1403            1404            1405            1406            1407            1408            1409            1410
             1411            1412            1413            1414            1415            1416            1417            1418            1419            1420
             1421            1422            1423            1424            1425            1426            1427            1428            1429            1430
             1431            1432            1433            1434            1435            1436            1437            1438            1439            1440
             1441            1442            1443            1444            1445            1446            1447            1448            1449            1450
             1451            1452            1453            1454            1455            1456            1457            1458            1459            1460
             1461            1462            1463            1464            1465            1466            1467            1468            1469            1470
             1471            1472            1473            1474            1475            1476            1477            1478            1479            1480
             1481            1482            1483            1484            1485            1486            1487            1488            1489            1490
             1491            1492            1493            1494            1495            1496            1497            1498            1499            1500
             1501            1502            1503            1504            1505            1506            1507            1508            1509            1510
             1511            1512            1513            1514            1515            1516            1517            1518            1519            1520
             1521            1522            1523            1524            1525            1526            1527            1528            1529            1530
             1531            1532            1533            1534            1535            1536            1537            1538            1539            1540
             1541            1542            1543            1544            1545            1546            1547            1548            1549            1550
             1551            1552            1553            1554            1555            1556            1557            1558            1559            1560
             1561            1562            1563            1564            1565            1566            1567            1568            1569            1570
             1571            1572            1573            1574            1575            1576            1577            1578            1579            1580
             1581            1582            1583            1584            1585            1586            1587            1588            1589            1590
             1591            1592            1593            1594            1595            1596            1597            1598            1599            1600
             1601            1602            1603            1604            1605            1606            1607            1608            1609            1610
             1611            1612            1613            1614            1615            1616            1617            1618            1619            1620
             1621            1622            1623            1624            1625            1626            1627            1628            1629            1630
             1631            1632            1633            1634            1635            1636            1637            1638            1639            1640
             1641            1642            1643            1644            1645            1646            1647            1648            1649            1650
             1651            1652            1653            1654            1655            1656            1657            1658            1659            1660
             1661            1662            1663            1664            1665            1666            1667            1668            1669            1670
             1671            1672            1673            1674            1675            1676            1677            1678            1679            1680
             1681            1682            1683            1684            1685            1686            1687            1688            1689            1690
             1691            1692            1693            1694            1695            1696            1697            1698            1699            1700
             1701            1702            1703            1704            1705            1706            1707            1708            1709            1710
             1711            1712            1713            1714            1715            1716            1717            1718            1719            1720
             1721            1722            1723            1724            1725            1726            1727            1728            1729            1730
             1731            1732            1733            1734            1735            1736            1737            1738            1739            1740
             1741            1742            1743            1744            1745            1746            1747            1748            1749            1750
             1751            1752            1753            1754            1755            1756            1757            1758            1759            1760
             1761            1762            1763            1764            1765            1766            1767            1768            1769            1770
             1771            1772            1773            1774            1775            1776            1777            1778            1779            1780
             1781            1782            1783            1784            1785            1786            1787            1788            1789            1790
             1791            1792            1793            1794            1795            1796            1797            1798            1799            1800
             1801            1802            1803            1804            1805            1806            1807            1808            1809            1810
             1811            1812            1813            1814            1815            1816            1817            1818            1819            1820
             1821            1822            1823            1824            1825            1826            1827            1828            1829            1830
             1831            1832            1833            1834            1835            1836            1837            1838            1839            1840
             1841            1842            1843            1844            1845            1846            1847            1848            1849            1850
             1851            1852            1853            1854            1855            1856            1857            1858            1859            1860
             1861            1862            1863            1864            1865            1866            1867            1868            1869            1870
             1871            1872            1873            1874            1875            1876            1877            1878            1879            1880
             1881            1882            1883            1884            1885            1886            1887            1888            1889            1890
             1891            1892            1893            1894            1895            1896            1897            1898            1899            1900
             1901            1902            1903            1904            1905            1906            1907            1908            1909            1910
             1911            1912            1913            1914            1915            1916            1917            1918            1919            1920
             1921            1922            1923            1924            1925            1926            1927            1928            1929            1930
             1931            1932            1933            1934            1935            1936            1937            1938            1939            1940
             1941            1942            1943            1944            1945            1946            1947            1948            1949            1950
             1951            1952            1953            1954            1955            1956            1957            1958            1959            1960
             1961            1962            1963            1964            1965            1966            1967            1968            1969            1970
             1971            1972            1973            1974            1975            1976            1977            1978            1979            1980
             1981            1982            1983            1984            1985            1986            1987            1988            1989            1990
             1991            1992            1993            1994            1995            1996            1997            1998            1999            2000
             2001            2002            2003            2004            2005            2006            2007            2008            2009            2010
             2011            2012            2013            2014            2015            2016            2017            2018            2019            2020
             2021            2022            2023            2024            2025            2026            2027            2028            2029            2030
             2031            2032            2033            2034            2035            2036            2037            2038            2039            2040
             2041            2042            2043            2044            2045            2046            2047            2048            2049            2050
             2051            2052            2053            2054            2055            2056            2057            2058            2059            2060
             2061            2062            2063            2064            2065            2066            2067            2068            2069            2070
             2071            2072            2073            2074            2075            2076            2077            2078            2079            2080
             2081            2082            2083            2084            2085            2086            2087            2088            2089            2090
             2091            2092            2093            2094            2095            2096            2097            2098            2099            2100
             2101            2102            2103            2104            2105            2106            2107            2108            2109            2110
             2111            2112            2113            2114            2115            2116            2117            2118            2119            2120
             2121            2122            2123            2124            2125            2126            2127            2128            2129            2130
             2131            2132            2133            2134            2135            2136            2137            2138            2139            2140
             2141            2142            2143            2144            2145            2146            2147            2148            2149            2150
             2151            2152            2153            2154            2155            2156            2157            2158            2159            2160
             2161            2162            2163            2164            2165            2166            2167            2168            2169            2170
             2171            2172            2173            2174            2175            2176            2177            2178            2179            2180
             2181            2182            2183            2184            2185            2186            2187            2188            2189            2190
             2191            2192            2193            2194            2195            2196            2197            2198            2199            2200
             2201            2202            2203            2204            2205            2206            2207            2208            2209            2210
             2211            2212            2213            2214            2215            2216            2217            2218            2219            2220
             2221            2222            2223            2224            2225            2226            2227            2228            2229            2230
             2231            2232            2233            2234            2235            2236            2237            2238            2239            2240
             2241            2242            2243            2244            2245            2246            2247            2248            2249            2250
             2251            2252            2253            2254            2255            2256            2257            2258            2259            2260
             2261            2262            2263            2264            2265            2266            2267            2268            2269            2270
             2271            2272            2273            2274            2275            2276            2277            2278            2279            2280
             2281            2282            2283            2284            2285            2286            2287            2288            2289            2290
             2291            2292            2293            2294            2295            2296            2297            2298            2299            2300
             2301            2302            2303            2304            2305            2306            2307            2308            2309            2310
             2311            2312            2313            2314            2315            2316            2317            2318            2319            2320
             2321            2322            2323            2324            2325            2326            2327            2328            2329            2330
             2331            2332            2333            2334            2335            2336            2337            2338            2339            2340
             2341            2342            2343            2344            2345            2346            2347            2348            2349            2350
             2351            2352            2353            2354            2355            2356            2357            2358            2359            2360
             2361            2362            2363            2364            2365            2366            2367            2368            2369            2370
             2371            2372            2373            2374            2375            2376            2377            2378            2379            2380
             2381            2382            2383            2384            2385            2386            2387            2388            2389            2390
             2391            2392            2393            2394            2395            2396            2397            2398            2399            2400
             2401            2402            2403            2404            2405            2406            2407            2408            2409            2410
             2411            2412            2413            2414            2415            2416            2417            2418            2419            2420
             2421            2422            2423            2424            2425            2426            2427            2428            2429            2430
             2431            2432            2433            2434            2435            2436            2437            2438            2439            2440
             2441            2442            2443            2444            2445            2446            2447            2448            2449            2450
             2451            2452            2453            2454            2455            2456            2457            2458            2459            2460
             2461            2462            2463            2464            2465            2466            2467            2468            2469            2470
             2471            2472            2473            2474            2475            2476            2477            2478            2479            2480
             2481            2482            2483            2484            2485            2486            2487            2488            2489            2490
             2491            2492            2493            2494            2495            2496            2497            2498            2499            2500
             2501            2502            2503            2504            2505            2506            2507            2508            2509            2510
             2511            2512            2513            2514            2515            2516            2517            2518            2519            2520
             2521            2522            2523            2524            2525            2526            2527            2528            2529            2530
             2531            2532            2533            2534            2535            2536            2537            2538            2539            2540
             2541            2542            2543            2544            2545            2546            2547            2548            2549            2550
             2551            2552            2553            2554            2555            2556            2557            2558            2559            2560
             2561            2562            2563            2564            2565            2566            2567            2568            2569            2570
             2571            2572            2573            2574            2575            2576            2577            2578            2579            2580
             2581            2582            2583            2584            2585            2586            2587            2588            2589            2590
             2591            2592            2593            2594            2595            2596            2597            2598            2599            2600
             2601            2602            2603            2604            2605            2606            2607            2608            2609            2610
             2611            2612            2613            2614            2615            2616            2617            2618            2619            2620
             2621            2622            2623            2624            2625            2626            2627            2628            2629            2630
             2631            2632            2633            2634            2635            2636            2637            2638            2639            2640
             2641            2642            2643            2644            2645            2646            2647            2648            2649            2650
             2651            2652            2653            2654            2655            2656            2657            2658            2659            2660
             2661            2662            2663            2664            2665            2666            2667            2668            2669            2670
             2671            2672            2673            2674            2675            2676            2677            2678            2679            2680
             2681            2682            2683            2684            2685            2686            2687            2688            2689            2690
             2691            2692            2693            2694            2695            2696            2697            2698            2699            2700
             2701            2702            2703            2704            2705            2706            2707            2708            2709            2710
             2711            2712            2713            2714            2715            2716            2717            2718            2719            2720
             2721            2722            2723            2724            2725            2726            2727            2728            2729            2730
             2731            2732            2733            2734            2735            2736            2737            2738            2739            2740
             2741            2742            2743            2744            2745            2746            2747            2748            2749            2750
             2751            2752            2753            2754            2755            2756            2757            2758            2759            2760
             2761            2762            2763            2764            2765            2766            2767            2768            2769            2770
             2771            2772            2773            2774            2775            2776            2777            2778            2779            2780
             2781            2782            2783            2784            2785            2786            2787            2788            2789            2790
             2791            2792            2793            2794            2795            2796            2797            2798            2799            2800
             2801            2802            2803            2804            2805            2806            2807            2808            2809            2810
             2811            2812            2813            2814            2815            2816            2817            2818            2819            2820
             2821            2822            2823            2824            2825            2826            2827            2828            2829            2830
             2831            2832            2833            2834            2835            2836            2837            2838            2839            2840
             2841            2842            2843            2844            2845            2846            2847            2848            2849            2850
             2851            2852            2853            2854            2855            2856            2857            2858            2859            2860
             2861            2862            2863            2864            2865            2866            2867            2868            2869            2870
             2871            2872            2873            2874            2875            2876            2877            2878            2879            2880
             2881            2882            2883            2884            2885            2886            2887            2888            2889            2890
             2891            2892            2893            2894            2895            2896            2897            2898            2899            2900
             2901            2902            2903            2904            2905            2906            2907            2908            2909            2910
             2911            2912            2913            2914            2915            2916            2917            2918            2919            2920
             2921            2922            2923            2924            2925            2926            2927            2928            2929            2930
             2931            2932            2933            2934            2935            2936            2937            2938            2939            2940
             2941            2942            2943            2944            2945            2946            2947            2948            2949            2950
             2951            2952            2953            2954            2955            2956            2957            2958            2959            2960
             2961            2962            2963            2964            2965            2966            2967            2968            2969            2970
             2971            2972            2973            2974            2975            2976            2977            2978            2979            2980
             2981            2982            2983            2984            2985            2986            2987            2988            2989            2990
             2991            2992            2993            2994            2995            2996            2997            2998            2999            3000
             3001            3002            3003            3004            3005            3006            3007            3008            3009            3010
             3011            3012            3013            3014            3015            3016            3017            3018            3019            3020
             3021            3022            3023            3024            3025            3026            3027            3028            3029            3030
             3031            3032            3033            3034            3035            3036            3037            3038            3039            3040
             3041            3042            3043            3044            3045            3046            3047            3048            3049            3050
             3051            3052            3053            3054            3055            3056            3057            3058            3059            3060
             3061            3062            3063            3064            3065            3066            3067            3068            3069            3070
             3071            3072            3073            3074            3075            3076            3077            3078            3079            3080
             3081            3082            3083            3084            3085            3086            3087            3088            3089            3090
             3091            3092            3093            3094            3095            3096            3097            3098            3099            3100
             3101            3102            3103            3104            3105            3106            3107            3108            3109            3110
             3111            3112            3113            3114            3115            3116            3117            3118            3119            3120
             3121            3122            3123            3124            3125            3126            3127            3128            3129            3130
             3131            3132            3133            3134            3135
 ................................................................................................................................................................
   1      138.905         138.753         138.524         138.264         138.056         137.925         138.076         137.945         137.746         137.527    
          137.362         137.252         137.195         137.183         137.207         137.261         137.336         137.426         137.525         137.626    
          137.720         137.802         137.857         139.311         139.098         138.884         138.635         138.365         138.128         137.995    
          138.182         138.074         137.863         137.765         137.937         137.813         137.609         137.433         137.312         137.246    
          137.226         137.245         137.295         137.368         137.456         137.554         137.656         137.754         137.846         137.929    
          138.014         139.759         139.541         139.322         139.089         138.831         138.557         138.275         138.028         137.899    
          138.111         138.009         137.770         137.680         137.871         137.777         137.576         137.508         137.667         137.574    
          137.430         137.342         137.305         137.312         137.352         137.419         137.503         137.599         137.701         137.804    
          137.905         138.004         138.102         138.200         140.187         139.987         139.786         139.574         139.344         139.090    
          138.820         138.541         138.261         137.997         137.775         137.674         137.867         137.790         137.589         137.535    
          137.696         137.614         137.485         137.421         137.406         137.429         137.483         137.559         137.649         137.749    
          137.856         137.965         138.074         138.185         138.296         138.407         140.560         140.393         140.222         140.042    
          139.847         139.631         139.390         139.132         138.860         138.581         138.302         138.039         137.822         137.730    
          137.929         137.860         137.656         137.611         137.774         137.700         137.579         137.531         137.529         137.561    
          137.621         137.701         137.795         137.903         138.018         138.137         138.261         138.387         138.515         138.644    
          140.865         140.732         140.600         140.460         140.307         140.135         139.939         139.718         139.476         139.218    
          138.945         138.662         138.382         138.128         137.914         137.828         138.031         137.968         137.761         137.721    
          137.889         137.819         137.701         137.661         137.662         137.697         137.758         137.842         137.945         138.062    
          138.190         138.327         138.470         138.618         138.770         138.922         141.098         141.006         140.907         140.806    
          140.695         140.569         140.422         140.252         140.054         139.834         139.595         139.337         139.061         138.776    
          138.501         138.253         138.041         137.957         138.168         138.108         137.895         137.857         138.033         137.963    
          137.843         137.800         137.798         137.831         137.894         137.985         138.100         138.234         138.382         138.542    
          138.712         138.889         139.073         139.259         141.260         141.199         141.140         141.077         141.008         140.926    
          140.827         140.707         140.562         140.391         140.195         139.979         139.741         139.481         139.204         138.923    
          138.653         138.412         138.197         138.114         138.336         138.278         138.051         138.011         138.201         138.127    
          137.994         137.943         137.935         137.965         138.033         138.137         138.270         138.427         138.602         138.792    
          138.996         139.214         139.445         139.687         141.363         141.333         141.305         141.278         141.246         141.207    
          141.154         141.082         140.989         140.871         140.727         140.558         140.366         140.151         139.913         139.653    
          139.379         139.102         138.838         138.602         138.379         138.289         138.528         138.465         138.217         138.168    
          138.375         138.317         138.117         138.085         138.245         138.205         138.060         138.048         138.160         138.124    
          138.070         138.102         138.181         138.305         138.463         138.649         138.857         139.086         139.335         139.609    
          139.921         140.330         140.678         140.989         141.280         141.561         141.834         142.101         142.363         142.623    
          142.880         143.135         143.387         143.634         143.878         144.118         144.354         144.584         144.808         145.026    
          145.235         145.434         145.620         145.795         145.961         146.126         146.300         146.497         146.725         146.983    
          147.239         147.484         147.703         147.891         148.045         148.164         148.236         141.421         141.418         141.418    
          141.418         141.414         141.402         141.375         141.332         141.265         141.174         141.057         140.914         140.748    
          140.557         140.340         140.101         139.843         139.572         139.302         139.043         138.807         138.607         138.437    
          138.284         138.231         138.389         138.351         138.198         138.182         138.299         138.275         138.181         138.189    
          138.255         138.246         138.247         138.348         138.497         138.685         138.904         139.150         139.421         139.718    
          140.035         140.373         140.698         141.001         141.288         141.567         141.839         142.106         142.369         142.629    
          142.886         143.144         143.399         143.650         143.897         144.142         144.383         144.618         144.848         145.072    
          145.287         145.492         145.684         145.864         146.036         146.208         146.388         146.587         146.810         147.054    
          147.302         147.539         147.752         147.939         148.093         148.215         148.305         148.379         141.507         141.519    
          141.538         141.561         141.581         141.593         141.592         141.575         141.535         141.469         141.377         141.258    
          141.116         140.949         140.756         140.537         140.299         140.042         139.776         139.509         139.252         139.011    
          138.792         138.600         138.458         138.351         138.327         138.436         138.403         138.354         138.412         138.537    
          138.714         138.934         139.189         139.474         139.784         140.098         140.411         140.721         141.015         141.298    
          141.574         141.843         142.108         142.372         142.634         142.894         143.156         143.416         143.673         143.928    
          144.181         144.431         144.676         144.916         145.152         145.378         145.591         145.792         145.980         146.161    
          146.340         146.525         146.724         146.942         147.174         147.410         147.638         147.846         148.030         148.181    
          148.300         148.385         148.447         148.501         141.609         141.630         141.665         141.706         141.747         141.782    
          141.804         141.810         141.794         141.753         141.683         141.588         141.468         141.323         141.153         140.956    
          140.737         140.498         140.242         139.978         139.711         139.447         139.193         138.957         138.752         138.573    
          138.516         138.681         138.638         138.484         138.472         138.587         138.551         138.512         138.592         138.743    
          138.951         139.205         139.496         139.814         140.128         140.433         140.734         141.023         141.300         141.573    
          141.838         142.103         142.367         142.631         142.895         143.163         143.430         143.696         143.961         144.225    
          144.487         144.744         144.999         145.249         145.488         145.713         145.924         146.121         146.310         146.496    
          146.686         146.885         147.099         147.322         147.549         147.770         147.976         148.156         148.305         148.411    
          148.477         148.518         148.547         148.571         141.720         141.748         141.795         141.853         141.913         141.968    
          142.011         142.037         142.041         142.021         141.975         141.901         141.802         141.677         141.528         141.352    
          141.152         140.931         140.690         140.433         140.165         139.891         139.616         139.349         139.100         138.881    
          138.711         138.656         138.811         138.770         138.629         138.624         138.724         138.695         138.675         138.780    
          138.960         139.202         139.492         139.814         140.131         140.433         140.731         141.016         141.289         141.556    
          141.818         142.081         142.346         142.613         142.883         143.156         143.431         143.707         143.984         144.262    
          144.538         144.811         145.080         145.346         145.601         145.838         146.058         146.266         146.464         146.658    
          146.852         147.052         147.264         147.482         147.704         147.923         148.129         148.306         148.453         148.539    
          148.576         148.588         148.588         148.585         148.579         141.835         141.868         141.926         141.998         142.075    
          142.147         142.208         142.252         142.275         142.274         142.247         142.194         142.114         142.009         141.879    
          141.723         141.543         141.339         141.113         140.867         140.604         140.329         140.045         139.758         139.479    
          139.218         138.998         138.838         138.790         138.929         138.892         138.771         138.774         138.853         138.835    
          138.838         138.972         139.187         139.467         139.789         140.108         140.409         140.705         140.986         141.255    
          141.516         141.775         142.036         142.302         142.571         142.847         143.128         143.413         143.701         143.992    
          144.284         144.575         144.865         145.149         145.432         145.701         145.949         146.182         146.400         146.608    
          146.810         147.009         147.212         147.426         147.645         147.866         148.084         148.289         148.459         148.595    
          148.663         148.667         148.647         148.619         148.591         148.564         148.536         141.950         141.988         142.054    
          142.138         142.230         142.318         142.394         142.454         142.494         142.509         142.499         142.463         142.402    
          142.315         142.203         142.066         141.905         141.718         141.508         141.276         141.023         140.752         140.466    
          140.171         139.873         139.582         139.316         139.100         138.953         138.914         139.032         139.000         138.906    
          138.917         138.971         138.966         138.998         139.170         139.427         139.742         140.062         140.362         140.654    
          140.930         141.194         141.449         141.705         141.965         142.230         142.503         142.784         143.074         143.369    
          143.671         143.976         144.284         144.592         144.897         145.198         145.495         145.777         146.038         146.282    
          146.512         146.730         146.941         147.147         147.356         147.573         147.795         148.020         148.236         148.437    
          148.603         148.714         148.753         148.727         148.681         148.630         148.582         148.540         148.503         148.470    
          142.061         142.103         142.176         142.271         142.375         142.477         142.567         142.642         142.695         142.725    
          142.730         142.708         142.663         142.594         142.499         142.380         142.237         142.069         141.875         141.658    
          141.417         141.155         140.873         140.578         140.271         139.960         139.660         139.393         139.183         139.054    
          139.027         139.120         139.097         139.034         139.059         139.083         139.095         139.165         139.382         139.680    
          139.995         140.292         140.576         140.845         141.102         141.353         141.603         141.860         142.126         142.402    
          142.689         142.988         143.295         143.611         143.933         144.258         144.583         144.904         145.219         145.529    
          145.823         146.096         146.353         146.595         146.824         147.045         147.260         147.476         147.698         147.924    
          148.151         148.371         148.566         148.714         148.791         148.797         148.746         148.680         148.613         148.552    
          148.499         148.459         148.434         142.167         142.212         142.292         142.395         142.510         142.622         142.725    
          142.812         142.878         142.921         142.939         142.931         142.900         142.846         142.768         142.666         142.540    
          142.389         142.213         142.012         141.785         141.535         141.261         140.969         140.663         140.344         140.023    
          139.719         139.453         139.253         139.150         139.140         139.205         139.195         139.168         139.212         139.202    
          139.237         139.349         139.613         139.915         140.203         140.475         140.732         140.980         141.223         141.469    
          141.721         141.986         142.265         142.559         142.867         143.188         143.520         143.860         144.202         144.545    
          144.882         145.210         145.530         145.835         146.121         146.391         146.644         146.884         147.115         147.341    
          147.564         147.791         148.020         148.247         148.458         148.646         148.768         148.811         148.788         148.720    
          148.641         148.564         148.494         148.436         148.394         148.373         142.264         142.313         142.398         142.509    
          142.632         142.754         142.867         142.964         143.042         143.097         143.127         143.131         143.113         143.073    
          143.011         142.926         142.817         142.684         142.525         142.340         142.129         141.892         141.630         141.346    
          141.042         140.722         140.393         140.066         139.761         139.503         139.324         139.257         139.269         139.308    
          139.308         139.350         139.555         139.826         140.100         140.354         140.593         140.829         141.062         141.300    
          141.547         141.808         142.088         142.389         142.708         143.045         143.395         143.754         144.116         144.478    
          144.832         145.173         145.502         145.815         146.112         146.393         146.657         146.908         147.149         147.382    
          147.609         147.840         148.070         148.291         148.494         148.661         148.753         148.767         148.722         148.646    
          148.562         148.481         148.409         148.350         148.309         148.289         142.351         142.404         142.496         142.613    
          142.742         142.872         142.992         143.099         143.186         143.252         143.293         143.310         143.304         143.278    
          143.230         143.161         143.069         142.953         142.811         142.642         142.446         142.224         141.974         141.700    
          141.405         141.087         140.756         140.420         140.092         139.792         139.548         139.402         139.370         139.479    
          139.434         139.397         139.523         139.740         139.984         140.215         140.433         140.650         140.869         141.095    
          141.334         141.591         141.871         142.178         142.511         142.865         143.236         143.616         144.001         144.382    
          144.753         145.108         145.446         145.767         146.071         146.361         146.634         146.895         147.144         147.381    
          147.611         147.841         148.067         148.279         148.461         148.596         148.661         148.656         148.604         148.529    
          148.448         148.370         148.300         148.244         148.205         148.185         142.423         142.486         142.586         142.708    
          142.841         142.975         143.102         143.216         143.312         143.388         143.440         143.468         143.475         143.461    
          143.428         143.374         143.299         143.199         143.073         142.921         142.740         142.532         142.296         142.033    
          141.746         141.437         141.107         140.769         140.430         140.106         139.816         139.602         139.528         139.691    
          139.631         139.487         139.477         139.567         139.534         139.529         139.670         139.862         140.061         140.254    
          140.447         140.646         140.853         141.078         141.329         141.610         141.926         142.273         142.647         143.042    
          143.448         143.856         144.257         144.645         145.016         145.366         145.693         146.002         146.296         146.578    
          146.845         147.098         147.339         147.571         147.793         148.004         148.197         148.360         148.466         148.506    
          148.497         148.450         148.381         148.308         148.236         148.171         148.118         148.080         148.061         142.472    
          142.563         142.672         142.797         142.930         143.065         143.195         143.315         143.420         143.505         143.568    
          143.608         143.627         143.627         143.607         143.569         143.509         143.425         143.316         143.179         143.015    
          142.822         142.600         142.349         142.072         141.770         141.446         141.108         140.764         140.426         140.110    
          139.840         139.666         139.607         139.745         139.675         139.586         139.625         139.742         139.894         140.053    
          140.219         140.391         140.574         140.780         141.020         141.302         141.629         141.996         142.395         142.818    
          143.252         143.685         144.107         144.512         144.896         145.260         145.594         145.904         146.200         146.487    
          146.760         147.016         147.260         147.491         147.704         147.894         148.061         148.206         148.298         148.327    
          148.317         148.276         148.215         148.150         148.084         148.023         147.970         147.934         147.916         142.649    
          142.760         142.883         143.013         143.145         143.276         143.398         143.508         143.602         143.677         143.731    
          143.764         143.778         143.773         143.750         143.705         143.636         143.542         143.420         143.271         143.094    
          142.886         142.648         142.382         142.089         141.772         141.438         141.093         140.747         140.413         140.105    
          139.869         139.771         139.962         139.855         139.688         139.618         139.637         139.720         139.833         139.963    
          140.106         140.264         140.448         140.673         140.953         141.294         141.686         142.116         142.571         143.036    
          143.496         143.940         144.363         144.760         145.130         145.469         145.782         146.079         146.368         146.643    
          146.901         147.145         147.374         147.580         147.760         147.913         148.044         148.131         148.156         148.141    
          148.101         148.045         147.981         147.917         147.856         147.806         147.770         147.753         142.856         142.971    
          143.091         143.217         143.344         143.467         143.581         143.683         143.770         143.838         143.887         143.916    
          143.926         143.917         143.887         143.833         143.753         143.646         143.512         143.349         143.156         142.931    
          142.677         142.394         142.086         141.759         141.417         141.069         140.724         140.404         140.259         140.541    
          140.392         140.101         139.976         140.233         140.085         139.846         139.664         139.568         139.560         139.616    
          139.702         139.816         139.954         140.118         140.327         140.616         140.760         140.465         140.608         140.954    
          141.110         140.788         140.988         141.365         141.826         142.313         142.807         143.292         143.759         144.200    
          144.611         144.987         145.329         145.643         145.939         146.227         146.505         146.765         147.006         147.231    
          147.434         147.613         147.763         147.889         147.973         147.994         147.972         147.929         147.870         147.805    
          147.739         147.678         147.627         147.591         147.572         143.061         143.170         143.286         143.406         143.527    
          143.644         143.753         143.849         143.930         143.994         144.039         144.065         144.071         144.056         144.017    
          143.952         143.859         143.738         143.589         143.410         143.199         142.958         142.689         142.393         142.076    
          141.743         141.398         141.049         140.719         140.550         140.849         140.718         140.382         140.230         140.534    
          140.397         140.079         139.966         140.227         140.072         139.797         139.582         139.474         139.462         139.497    
          139.579         139.692         139.839         140.047         140.150         139.933         140.030         140.296         140.451         140.160    
          140.311         140.630         140.832         140.487         140.687         141.052         141.230         140.904         141.128         141.546    
          142.061         142.580         143.087         143.571         144.025         144.446         144.828         145.175         145.493         145.791    
          146.078         146.356         146.614         146.848         147.063         147.261         147.441         147.594         147.719         147.802    
          147.820         147.793         147.743         147.682         147.612         147.542         147.479         147.426         147.390         147.373    
          143.255         143.358         143.468         143.583         143.699         143.812         143.915         144.007         144.084         144.145    
          144.187         144.210         144.210         144.186         144.136         144.058         143.951         143.816         143.653         143.456    
          143.231         142.976         142.696         142.394         142.073         141.739         141.398         141.054         140.715         140.392    
          140.222         140.523         140.392         140.045         139.916         140.206         140.070         139.763         139.661         139.894    
          139.782         139.565         139.508         139.656         139.586         139.469         139.449         139.516         139.485         139.443    
          139.450         139.458         139.457         139.481         139.509         139.470         139.490         139.560         139.603         139.526    
          139.563         139.675         139.733         139.620         139.674         139.826         139.924         139.759         139.841         140.047    
          140.193         139.961         140.099         140.363         140.558         140.263         140.451         140.772         140.993         140.664    
          140.899         141.302         141.823         142.360         142.886         143.382         143.840         144.267         144.655         145.003    
          145.325         145.630         145.920         146.198         146.453         146.678         146.879         147.063         147.232         147.385    
          147.506         147.588         147.612         147.583         147.527         147.460         147.385         147.313         147.248         147.195    
          147.160         147.146         143.436         143.533         143.639         143.750         143.862         143.969         144.068         144.157    
          144.231         144.290         144.329         144.346         144.338         144.304         144.241         144.150         144.030         143.882    
          143.706         143.497         143.261         143.003         142.718         142.415         142.097         141.767         141.432         141.098    
          140.752         140.412         140.083         139.817         139.635         139.543         139.520         139.546         139.610         139.733    
          139.904         140.031         139.879         139.982         140.187         140.363         140.139         140.287         140.570         140.799    
          140.492         140.713         141.046         141.244         140.947         141.183         141.611         142.156         142.687         143.187    
          143.650         144.076         144.462         144.809         145.134         145.445         145.742         146.023         146.276         146.492    
          146.679         146.845         146.995         147.137         147.249         147.324         147.350         147.322         147.267         147.197    
          147.123         147.054         146.992         146.943         146.909         146.891         143.605         143.699         143.801         143.907    
          144.014         144.117         144.213         144.300         144.372         144.427         144.461         144.471         144.454         144.409    
          144.335         144.232         144.101         143.943         143.758         143.541         143.305         143.049         142.772         142.473    
          142.162         141.838         141.514         141.185         140.844         140.507         140.203         139.971         139.799         139.699    
          139.657         139.665         139.737         139.896         140.151         140.437         140.647         140.400         140.598         140.873    
          141.096         140.828         141.029         141.445         141.978         142.502         142.997         143.454         143.872         144.250    
          144.592         144.915         145.229         145.533         145.819         146.072         146.285         146.459         146.608         146.736    
          146.850         146.950         147.015         147.033         147.005         146.955         146.889         146.823         146.762         146.708    
          146.667         146.636         146.616         143.767         143.856         143.952         144.053         144.156         144.257         144.351    
          144.436         144.505         144.555         144.583         144.585         144.558         144.504         144.421         144.311         144.173    
          144.012         143.822         143.607         143.375         143.128         142.869         142.579         142.276         141.964         141.649    
          141.318         140.977         140.645         140.361         140.128         139.951         139.837         139.782         139.800         139.913    
          140.083         140.196         140.077         140.200         140.368         140.550         140.355         140.528         140.845         141.321    
          141.825         142.331         142.814         143.256         143.659         144.024         144.356         144.668         144.973         145.279    
          145.569         145.822         146.033         146.202         146.336         146.445         146.532         146.611         146.662         146.671    
          146.640         146.590         146.534         146.479         146.429         146.386         146.354         146.329         146.314         143.918    
          144.000         144.091         144.189         144.290         144.389         144.481         144.562         144.628         144.673         144.693    
          144.686         144.652         144.591         144.504         144.391         144.255         144.093         143.909         143.706         143.482    
          143.255         143.011         142.734         142.442         142.141         141.822         141.480         141.126         140.788         140.499    
          140.253         140.064         139.943         139.906         139.972         140.095         140.206         140.116         140.211         140.350    
          140.510         140.351         140.504         140.780         141.219         141.690         142.172         142.636         143.060         143.444    
          143.789         144.103         144.396         144.680         144.965         145.245         145.501         145.714         145.880         146.008    
          146.106         146.178         146.232         146.262         146.264         146.234         146.185         146.135         146.093         146.056    
          146.028         146.007         145.991         145.981         144.057         144.135         144.222         144.317         144.416         144.512    
          144.601         144.679         144.740         144.777         144.789         144.775         144.736         144.672         144.586         144.476    
          144.344         144.192         144.022         143.835         143.631         143.424         143.193         142.929         142.652         142.354    
          142.018         141.648         141.277         140.929         140.617         140.346         140.136         140.036         140.058         140.193    
          140.362         140.499         140.371         140.501         140.737         141.131         141.569         142.022         142.463         142.870    
          143.231         143.552         143.842         144.108         144.361         144.609         144.849         145.093         145.309         145.484    
          145.617         145.716         145.780         145.817         145.828         145.817         145.784         145.736         145.691         145.662    
          145.645         145.637         145.635         145.633         145.630         144.186         144.260         144.346         144.438         144.533    
          144.626         144.711         144.784         144.837         144.866         144.872         144.855         144.814         144.752         144.670    
          144.568         144.448         144.313         144.163         143.997         143.816         143.627         143.410         143.169         142.900    
          142.588         142.215         141.815         141.416         141.036         140.681         140.376         140.182         140.153         140.245    
          140.387         140.503         140.396         140.507         140.707         141.049         141.450         141.875         142.289         142.678    
          143.022         143.321         143.581         143.816         144.030         144.236         144.441         144.652         144.855         145.037    
          145.178         145.280         145.342         145.370         145.371         145.344         145.304         145.254         145.219         145.204    
          145.209         145.227         145.247         145.263         145.269         144.308         144.381         144.463         144.551         144.642    
          144.730         144.810         144.874         144.919         144.943         144.945         144.926         144.888         144.831         144.758    
          144.670         144.569         144.455         144.328         144.188         144.032         143.855         143.653         143.421         143.141    
          142.797         142.376         141.939         141.515         141.079         140.667         140.363         140.261         140.303         140.409    
          140.508         140.420         140.512         140.684         140.981         141.332         141.722         142.110         142.476         142.800    
          143.078         143.313         143.516         143.701         143.877         144.059         144.237         144.414         144.578         144.716    
          144.820         144.884         144.913         144.904         144.866         144.810         144.763         144.738         144.738         144.762    
          144.811         144.857         144.895         144.914         144.426         144.494         144.572         144.656         144.741         144.822    
          144.894         144.951         144.990         145.010         145.011         144.994         144.960         144.913         144.854         144.783    
          144.702         144.610         144.506         144.386         144.241         144.066         143.865         143.616         143.297         142.890    
          142.445         141.990         141.487         140.979         140.589         140.390         140.377         140.439         140.515         140.458    
          140.524         140.658         140.914         141.224         141.569         141.922         142.254         142.553         142.806         143.018    
          143.202         143.370         143.530         143.684         143.834         143.989         144.145         144.282         144.392         144.537    
          144.573         144.368         144.380         144.594         144.599         144.399         144.404         144.591         144.577         144.399    
          144.387         144.549         144.521         144.360         144.333         144.481         144.460         144.298         144.273         144.436    
          144.422         144.246         144.232         144.411         144.410         144.220         144.220         144.414         144.421         144.226    
          144.235         144.437         144.448         144.254         144.292         144.417         144.489         144.546         144.578         144.536    
          144.600         144.673         144.751         144.829         144.903         144.967         145.018         145.053         145.070         145.071    
          145.059         145.033         144.997         144.952         144.897         144.832         144.755         144.660         144.541         144.388    
          144.201         143.964         143.660         143.269         142.824         142.382         141.854         141.297         140.840         140.576    
          140.488         140.495         140.537         140.524         140.555         140.634         140.839         141.114         141.425         141.739    
          142.034         142.299         142.523         142.715         142.888         143.048         143.190         143.323         143.465         143.650    
          143.728         143.507         143.570         143.823         143.891         143.655         143.720         143.974         144.031         143.804    
          143.860         144.095         144.136         143.928         143.971         144.176         144.191         144.021         144.055         144.147    
          144.145         144.110         144.059         144.017         144.057         144.062         143.954         143.944         144.067         144.078    
          143.944         143.951         144.095         144.122         143.967         143.986         144.153         144.173         144.014         144.056    
          144.167         144.235         144.281         144.638         144.697         144.763         144.835         144.906         144.973         145.031    
          145.077         145.108         145.125         145.129         145.121         145.104         145.079         145.045         145.001         144.944    
          144.866         144.761         144.620         144.435         144.196         143.893         143.531         143.097         142.654         142.139    
          141.582         141.121         140.799         140.635         140.588         140.707         140.651         140.569         140.578         140.611    
          140.605         140.618         140.761         140.994         141.272         141.551         141.813         142.055         142.263         142.438    
          142.595         142.745         142.882         143.049         143.120         142.932         142.995         143.205         143.268         143.076    
          143.139         143.348         143.412         143.227         143.298         143.471         143.616         143.737         143.825         143.876    
          143.891         143.876         143.844         143.814         143.797         143.797         143.820         143.893         143.929         143.817    
          143.833         143.962         143.981         143.860         143.894         143.984         144.051         144.730         144.783         144.843    
          144.908         144.973         145.035         145.088         145.129         145.159         145.176         145.183         145.182         145.173    
          145.156         145.127         145.081         145.014         144.917         144.778         144.583         144.334         144.036         143.700    
          143.301         142.852         142.368         141.847         141.381         141.016         140.804         140.726         140.870         140.782    
          140.660         140.597         140.655         140.852         141.096         141.351         141.580         141.797         141.998         142.171    
          142.322         142.471         142.641         142.712         142.529         142.599         142.796         142.864         142.690         142.766    
          142.936         143.093         143.245         143.390         143.514         143.605         143.663         143.690         143.693         143.681    
          143.667         143.659         143.662         143.679         143.711         143.773         143.801         143.716         143.730         143.826    
          143.841         143.747         143.759         143.862         143.767         144.811         144.858         144.912         144.971         145.032    
          145.088         145.137         145.177         145.206         145.225         145.236         145.240         145.237         145.221         145.184    
          145.124         145.027         144.883         144.687         144.435         144.135         143.796         143.418         143.001         142.553    
          142.080         141.627         141.231         140.964         140.852         141.026         140.930         140.754         140.689         140.815    
          140.724         140.592         140.565         140.692         140.895         141.109         141.321         141.521         141.712         141.887    
          142.045         142.207         142.391         142.470         142.295         142.378         142.557         142.742         142.915         143.068    
          143.211         143.333         143.428         143.491         143.529         143.548         143.555         143.558         143.561         143.571    
          143.588         143.613         143.641         143.661         143.657         144.880         144.921         144.971         145.026         145.082    
          145.135         145.181         145.219         145.249         145.270         145.285         145.291         145.284         145.256         145.199    
          145.102         144.958         144.759         144.507         144.211         143.878         143.514         143.122         142.705         142.274    
          141.847         141.447         141.104         140.879         140.765         140.926         140.804         140.608         140.495         140.546    
          140.684         140.859         141.041         141.228         141.418         141.599         141.777         141.971         142.060         141.866    
          141.957         142.170         142.258         142.073         142.166         142.365         142.574         142.766         142.927         143.067    
          143.186         143.281         143.351         143.400         143.433         143.456         143.473         143.489         143.507         143.528    
          143.552         143.577         143.598         143.606         144.938         144.975         145.021         145.072         145.125         145.175    
          145.219         145.256         145.286         145.308         145.321         145.321         145.298         145.246         145.150         145.005    
          144.807         144.557         144.266         143.945         143.598         143.228         142.848         142.454         142.054         141.661    
          141.282         140.999         140.855         141.051         140.928         140.710         140.611         140.770         140.641         140.487    
          140.444         140.510         140.636         140.792         140.986         141.073         140.884         140.968         141.185         141.263    
          141.075         141.155         141.372         141.453         141.266         141.352         141.564         141.644         141.468         141.554    
          141.750         141.847         141.674         141.772         141.980         142.216         142.445         142.647         142.813         142.951    
          143.068         143.164         143.239         143.297         143.342         143.377         143.407         143.434         143.459         143.486    
          143.514         143.539         143.568         143.581         144.986         145.020         145.063         145.111         145.160         145.206    
          145.247         145.282         145.310         145.328         145.332         145.316         145.265         145.171         145.028         144.831    
          144.585         144.303         143.996         143.668         143.325         142.976         142.615         142.245         141.871         141.488    
          141.113         140.835         140.686         140.883         140.755         140.561         140.485         140.616         140.514         140.406    
          140.408         140.497         140.550         140.456         140.509         140.632         140.697         140.586         140.651         140.790    
          140.873         140.748         140.828         140.991         141.195         141.415         141.642         141.887         142.128         142.357    
          142.556         142.720         142.858         142.972         143.070         143.150         143.215         143.269         143.314         143.354    
          143.389         143.424         143.454         143.490         143.510         145.027         145.057         145.096         145.140         145.184    
          145.226         145.263         145.293         145.314         145.320         145.304         145.257         145.165         145.023         144.828    
          144.589         144.320         144.034         143.729         143.412         143.087         142.756         142.414         142.064         141.699    
          141.308         140.941         140.685         140.566         140.748         140.648         140.476         140.432         140.545         140.495    
          140.414         140.418         140.462         140.462         140.452         140.502         140.488         140.525         140.608         140.776    
          140.968         141.179         141.395         141.622         141.856         142.084         142.302         142.492         142.649         142.784    
          142.898         142.995         143.079         143.150         143.211         143.263         143.311         143.353         143.399         143.424    
          145.061         145.087         145.120         145.157         145.195         145.230         145.259         145.279         145.284         145.268    
          145.220         145.130         144.987         144.797         144.573         144.328         144.065         143.783         143.490         143.186    
          142.878         142.562         142.231         141.887         141.511         141.142         140.848         140.651         140.571         140.600    
          140.707         140.857         141.035         141.229         141.428         141.641         141.855         142.062         142.266         142.448    
          142.598         142.728         142.841         142.937         143.022         143.101         143.166         143.221         143.281         143.315    
          145.085         145.104         145.130         145.160         145.189         145.213         145.230         145.231         145.211         145.160    
          145.072         144.936         144.758         144.554         144.333         144.094         143.838         143.569         143.283         142.988    
          142.685         142.367         142.039         141.684         141.330         141.041         140.839         140.743         140.751         140.833    
          140.960         141.119         141.292         141.475         141.669         141.860         142.043         142.230         142.413         142.562    
          142.690         142.800         142.893         142.974         143.069         143.136         143.178         145.094         145.105         145.124    
          145.144         145.162         145.171         145.167         145.142         145.090         145.005         144.881         144.722         144.540    
          144.342         144.127         143.898         143.654         143.386         143.081         142.780         142.476         142.151         141.801    
          141.461         141.180         140.978         140.874         140.866         140.929         141.038         141.177         141.335         141.505    
          141.683         141.854         142.016         142.182         142.388         142.542         142.670         142.777         142.861         142.916    
          145.089         145.092         145.101         145.110         145.112         145.103         145.075         145.024         144.945         144.834    
          144.696         144.537         144.362         144.171         143.965         143.738         143.496         143.154         142.842         142.540    
          142.219         141.868         141.535         141.259         141.053         140.944         140.928         140.980         141.078         141.208    
          141.357         141.520         141.688         141.845         141.982         142.081         145.069         145.065         145.063         145.059    
          145.047         145.019         144.971         144.899         144.802         144.683         144.546         144.395         144.225         144.046    
          143.819         143.662         145.039         145.025         145.017         145.005         144.979         144.935         144.869         144.782    
          144.681         144.567         144.441         144.279         144.165         144.998         144.993         144.980         144.956         144.916    
          144.855         144.773         144.682         144.592         144.520    

 HEAD WILL BE SAVED ON UNIT 1020 AT END OF TIME STEP   48, STRESS PERIOD    2

 SFR PACKAGE (SFR) STAGES FOR EACH CONTROL VOLUME   PERIOD      2   STEP       48
 -------------------------------------------------------------------------------------------------------------
                                                                                      STREAMBED    STREAMBED  
   NUMBER   CELLID                  STAGE        DEPTH        WIDTH       GWF HEAD   CONDUCTANCE    GRADIENT  
 -------------------------------------------------------------------------------------------------------------
     1      (2,2565)              143.61       0.0000       0.0000       143.55       1016.1       5.84229E-02
     2      (2,2563)              143.50       1.08311E-03  2.0000       143.51       319.68      -1.30173E-02
     3      (2,2561)              143.45       4.61512E-03  2.0000       143.52       615.17      -6.22288E-02
     4      (2,2560)              143.46       8.04951E-03  2.0000       143.49       955.58      -3.44227E-02
     5      (2,2557)              143.46       9.71861E-03  2.0000       143.48       490.75      -2.15231E-02
     6      (2,2485)              143.46       1.10810E-02  2.0000       143.52       478.66      -6.02551E-02
     7      (2,2484)              143.43       1.29841E-02  2.0000       143.46       1093.8      -2.90895E-02
     8      (2,2481)              143.34       1.40640E-02  2.0000       143.43       60.480      -8.92650E-02
     9      (2,2479)              143.35       1.60087E-02  2.0000       143.42       862.27      -7.71429E-02
     10     (2,2478)              143.35       1.85684E-02  2.0000       143.39       978.05      -3.82127E-02
     11     (2,2399)              143.35       2.03238E-02  2.0000       143.46       371.52      -0.10684    
     12     (2,2396)              143.35       2.16681E-02  2.0000       143.39       584.06      -3.83937E-02
     13     (2,2394)              143.30       2.41810E-02  2.0000       143.40       998.78      -0.10081    
     14     (2,2393)              143.28       2.62787E-02  2.0000       143.37       98.496      -9.00206E-02
     15     (2,2304)              143.17       2.96671E-02  2.0000       143.37       917.57      -0.19692    
     16     (2,2301)              143.18       3.51016E-02  2.0000       143.34       910.66      -0.16962    
     17     (2,2300)              143.18       3.76950E-02  2.0000       143.46       65.664      -0.28117    
     18     (2,2389)              143.18       3.90374E-02  2.0000       143.27       812.16      -9.14248E-02
     19     (2,2386)              143.11       4.15896E-02  2.0000       143.24       870.91      -0.12393    
     20     (2,2385)              143.11       4.36543E-02  2.0000       143.28       278.21      -0.16186    
     21     (2,2296)              143.12       4.59548E-02  2.0000       143.33       603.07      -0.21749    
     22     (2,2293)              143.12       4.95519E-02  2.0000       143.29       893.38      -0.17495    
     23     (2,2292)              143.12       5.32307E-02  2.0000       143.30       884.74      -0.17229    
     24     (2,2289)              143.13       5.70740E-02  2.0000       143.33       910.66      -0.20388    
     25     (2,2288)              143.13       5.97219E-02  2.0000       143.50       153.79      -0.36624    
     26     (2,2286)              143.09       6.40294E-02  2.0000       143.55       781.06      -0.45168    
     27     (1,2283)              143.10       7.25740E-02  2.0000       143.68       889.92      -0.57752    
     28     (1,2282)              143.11       8.19361E-02  2.0000       143.70       877.82      -0.58896    
     29     (1,2279)              143.12       9.08989E-02  2.0000       143.74       884.74      -0.61779    
     30     (1,2278)              143.13       9.98813E-02  2.0000       143.79       896.83      -0.65999    
     31     (1,2275)              143.14       0.10549      2.0000       144.03       172.80      -0.89858    
     32     (1,2277)              143.14       0.10945      2.0000       143.67       730.94      -0.52999    
     33     (1,2276)              143.15       0.11542      2.0000       143.65       908.93      -0.50282    
     34     (1,2273)              143.15       0.12179      2.0000       143.69       891.65      -0.53434    
     35     (1,2272)              143.16       0.12692      2.0000       143.82       454.46      -0.65949    
     36     (1,2376)              143.16       0.13023      2.0000       143.64       442.37      -0.47867    
     37     (1,2373)              143.16       0.13380      2.0000       143.56       881.28      -0.39795    
     38     (1,2372)              143.17       0.13790      2.0000       143.52       881.28      -0.34945    
     39     (1,2369)              143.15       0.14134      2.0000       143.43       902.02      -0.28161    
     40     (1,2368)              142.70       0.14559      2.0000       143.26       806.98      -0.56094    
     41     (1,2370)              142.70       0.14849      2.0000       143.16       82.944      -0.46552    
     42     (1,2367)              142.20       0.15150      2.0000       142.73       902.02      -0.52825    
     43     (1,2366)              141.91       0.15718      2.0000       142.48       898.56      -0.57399    
     44     (1,2363)              141.38       0.16392      2.0000       142.18       876.10      -0.79196    
     45     (1,2362)              141.15       0.17215      2.0000       142.04       926.21      -0.89216    
     46     (1,2462)              140.80       0.17654      2.0000       142.05       5.1840      -1.2553     
     47     (1,2459)              140.61       0.18143      2.0000       141.49       1069.6      -0.87489    
     48     (1,2458)              140.62       0.18801      2.0000       141.61       362.88      -0.99079    
     49     (1,2460)              140.24       0.19317      2.0000       141.19       713.66      -0.95124    
     50     (1,2457)              140.25       0.19962      2.0000       141.16       705.02      -0.91315    
     51     (1,2538)              139.92       0.20482      2.0000       141.00       412.99      -1.0755     
     52     (1,2537)              139.93       0.21093      2.0000       140.80       983.23      -0.87348    
     53     (1,2539)              139.78       0.21587      2.0000       140.89       190.08      -1.1148     
     54     (1,2536)              139.76       0.22030      2.0000       140.62       886.46      -0.85966    
     55     (1,2614)              139.62       0.22614      2.0000       140.47       635.90      -0.85394    
     56     (1,2613)              139.59       0.23028      2.0000       140.50       435.46      -0.90916    
     57     (1,2615)              139.44       0.23504      2.0000       140.16       955.58      -0.72836    
     58     (1,2682)              139.26       0.24100      2.0000       140.04       884.74      -0.78394    
     59     (1,2684)              139.21       0.24616      2.0000       140.19       539.14      -0.98020    
     60     (1,2681)              139.14       0.25004      2.0000       140.04       447.55      -0.90002    
     61     (1,2762)              139.14       0.25446      2.0000       139.92       857.09      -0.77903    
     62     (1,2761)              139.10       0.25841      2.0000       139.93       364.61      -0.82663    
     63     (1,2763)              139.10       0.26162      2.0000       139.88       627.26      -0.78285    
     64     (1,2760)              138.92       0.26610      2.0000       139.56       978.05      -0.64236    
     65     (1,2759)              138.85       0.27083      2.0000       139.49       883.01      -0.64374    
     66     (1,2756)              138.77       0.27530      2.0000       139.40       903.74      -0.63327    
     67     (1,2755)              138.61       0.27997      2.0000       139.32       896.83      -0.70844    
     68     (1,2752)              138.61       0.28482      2.0000       139.31       910.66      -0.69528    
     69     (1,2751)              138.62       0.28990      2.0000       139.39       926.21      -0.76578    
     70     (1,2748)              138.62       0.29272      2.0000       139.77       38.016      -1.1475     
     71     (1,2831)              138.63       0.29520      2.0000       139.30       926.21      -0.67115    
     72     (1,2830)              138.63       0.29969      2.0000       139.27       927.94      -0.63777    
     73     (1,2827)              138.63       0.30288      2.0000       139.46       336.96      -0.82883    
     74     (1,2829)              138.64       0.30534      2.0000       139.31       585.79      -0.67711    
     75     (1,2828)              138.64       0.30864      2.0000       139.20       910.66      -0.56441    
     76     (1,2825)              138.64       0.31236      2.0000       139.21       910.66      -0.57253    
     77     (1,2824)              138.65       0.31504      2.0000       139.37       321.41      -0.72212    
     78     (1,2895)              138.65       0.31722      2.0000       139.29       589.25      -0.64664    
     79     (1,2892)              138.65       0.32020      2.0000       139.16       900.29      -0.51415    
     80     (1,2891)              138.65       0.32339      2.0000       139.14       927.94      -0.48241    
     81     (1,2888)              138.66       0.32638      2.0000       139.13       872.64      -0.47004    
     82     (1,2887)              138.66       0.32972      2.0000       139.13       1164.7      -0.47442    
     83     (1,2884)              138.66       0.33217      2.0000       139.51       190.08      -0.84659    
     84     (1,2819)              138.66       0.33453      2.0000       139.17       1031.6      -0.51016    
     85     (1,2818)              138.58       0.33687      2.0000       139.42       190.08      -0.84346    
     86     (1,2816)              138.58       0.33927      2.0000       139.11       1031.6      -0.52959    
     87     (1,2813)              138.32       0.34173      2.0000       139.29       190.08      -0.96377    
     88     (1,2739)              138.32       0.34437      2.0000       138.91       1031.6      -0.58344    
     89     (1,2738)              137.91       0.34713      2.0000       139.09       190.08      -1.1814     
     90     (1,2736)              137.91       0.35043      2.0000       138.65       1031.6      -0.74357    
     91     (1,2733)              137.56       0.35379      2.0000       138.89       190.08      -1.3258     
     92     (1,2667)              137.57       0.35739      2.0000       138.39       1031.6      -0.81848    
     93     (1,2666)              137.56       0.36089      2.0000       138.76       190.08      -1.1957     
     94     (1,2664)              137.47       0.36435      2.0000       138.24       1099.0      -0.76743    
     95     (1,2600)              137.27       0.36844      2.0000       138.28       421.63      -1.0127     
     96     (1,2597)              137.00       0.37220      2.0000       138.17       644.54      -1.1646     
     97     (1,2595)              137.01       0.37732      2.0000       137.89       981.50      -0.88251    
     98     (1,2520)              137.01       0.38104      2.0000       138.08       297.22      -1.0669     
     99     (1,2519)              137.01       0.38458      2.0000       138.03       803.52      -1.0144     
    100     (1,2517)              137.02       0.38969      2.0000       137.87       983.23      -0.84659    
    101     (1,2436)              137.02       0.39494      2.0000       137.86       1054.1      -0.83240    
    102     (1,2434)              137.03       0.39955      2.0000       138.03       632.45      -1.0024     
    103     (1,2435)              137.03       0.40413      2.0000       137.73       1263.2      -0.69785    
    104     (1,2438)              137.04       0.40784      2.0000       138.08       336.96      -1.0419     
    105     (1,2344)              137.04       0.41119      2.0000       137.89       910.66      -0.84616    
    106     (1,2342)              137.05       0.41512      2.0000       137.95       615.17      -0.90070    
    107     (1,2343)              137.05       0.41819      2.0000       138.11       457.92      -1.0653     
    108     (1,2251)              137.02       0.42208      2.0000       137.84       1016.1      -0.82249    
    109     (1,2249)              136.92       0.42676      2.0000       137.81       864.00      -0.89033    
    110     (1,2183)              136.79       0.43151      2.0000       137.72       934.85      -0.93129    
    111     (1,2181)              136.74       0.43643      2.0000       137.71       864.00      -0.97275    
    112     (1,2114)              136.74       0.44125      2.0000       137.72       872.64      -0.97472    
    113     (1,2112)              136.75       0.44609      2.0000       137.74       867.46      -0.98944    
    114     (1,2044)              136.75       0.44993      2.0000       137.93       430.27      -1.1769     
    115     (1,2043)              136.75       0.45281      2.0000       137.72       546.05      -0.96235    
    116     (1,2041)              136.74       0.45667      2.0000       137.58       1021.2      -0.84064    
    117     (1,1972)              136.74       0.45945      2.0000       137.71       148.61      -0.97353    
    118     (1,1969)              136.51       0.46213      2.0000       137.39       943.49      -0.87749    
    119     (1,1967)              136.52       0.46551      2.0000       137.30       508.03      -0.78619    
    120     (1,1966)              136.45       0.46809      2.0000       137.41       565.06      -0.96056    
    121     (1,1893)              136.37       0.47146      2.0000       137.19       855.36      -0.81388    
    122     (1,1894)              136.37       0.47381      2.0000       137.21       200.45      -0.84021    
    123     (1,1892)              136.38       0.47578      2.0000       137.01       888.19      -0.63179    
    124     (1,1895)              136.37       0.47897      2.0000       137.07       888.19      -0.69873    
    125     (1,1896)              136.37       0.48267      2.0000       137.40       739.58      -1.0232     
    126     (1,1819)              136.38       0.48520      2.0000       137.30       205.63      -0.92696    
    127     (1,1822)              136.37       0.48858      2.0000       137.54       924.48      -1.1703     
    128     (1,1820)              136.13       0.49432      2.0000       137.33       907.20      -1.1965     
    129     (1,1745)              136.14       0.50112      2.0000       137.45       1152.6      -1.3105     
    130     (1,1742)              136.07       0.50727      2.0000       137.03       888.19      -0.95880    
    131     (1,1741)              136.07       0.51121      2.0000       136.80       926.21      -0.72710    
    132     (1,1738)              135.98       0.51454      2.0000       136.67       910.66      -0.68562    
    133     (1,1737)              135.99       0.51700      2.0000       136.76       433.73      -0.76958    
    134     (1,1735)              135.96       0.51923      2.0000       136.59       860.54      -0.62878    
    135     (1,1732)              135.96       0.52106      2.0000       136.73       229.82      -0.77365    
    136     (1,1653)              135.90       0.52287      2.0000       136.44       993.60      -0.53830    
    137     (1,1651)              135.89       0.52561      2.0000       136.41       1054.1      -0.51995    
    138     (1,1654)              135.89       0.52833      2.0000       136.49       870.91      -0.60650    
    139     (1,1655)              135.85       0.53169      2.0000       136.68       974.59      -0.82961    
    140     (1,1658)              135.85       0.53473      2.0000       137.33       273.02      -1.4783     
    141     (1,1548)              135.86       0.53881      2.0000       137.22       903.74      -1.3658     
    142     (1,1546)              135.86       0.54452      2.0000       137.74       571.97      -1.8708     
    143     (1,1543)              135.87       0.54950      2.0000       137.14       746.50      -1.2743     
    144     (1,1453)              135.87       0.55358      2.0000       137.96       342.14      -2.0905     
    145     (1,1452)              135.88       0.55860      2.0000       137.35       914.11      -1.4690     
    146     (1,1449)              135.88       0.56481      2.0000       137.23       914.11      -1.3421     
    147     (1,1448)              135.89       0.56897      2.0000       137.55       302.40      -1.6561     
    148     (1,1538)              135.85       0.57173      2.0000       136.83       668.74      -0.97887    
    149     (1,1535)              135.86       0.57560      2.0000       136.85       969.41      -0.99606    
    150     (1,1537)              135.84       0.57950      2.0000       136.55       955.58      -0.70743    
    151     (1,1647)              135.84       0.58235      2.0000       136.42       910.66      -0.57988    
    152     (1,1649)              135.84       0.58496      2.0000       136.47       931.39      -0.62314    
    153     (1,1648)              135.85       0.58774      2.0000       136.52       896.83      -0.67175    
    154     (1,1645)              135.80       0.59089      2.0000       136.59       940.03      -0.78717    
    155     (1,1644)              135.72       0.59407      2.0000       136.69       648.00      -0.96171    
    156     (1,1642)              135.66       0.59660      2.0000       136.76       421.63      -1.1042     
    157     (1,1639)              135.66       0.59989      2.0000       136.68       933.12      -1.0188     
    158     (1,1638)              135.66       0.60322      2.0000       136.89       400.90      -1.2276     
    159     (1,1640)              135.67       0.60588      2.0000       136.79       587.52      -1.1255     
    160     (1,1637)              135.67       0.60961      2.0000       136.73       910.66      -1.0603     
    161     (1,1636)              135.67       0.61398      2.0000       136.76       872.64      -1.0841     
    162     (1,1633)              135.68       0.61831      2.0000       136.79       865.73      -1.1070     
    163     (1,1632)              135.67       0.62269      2.0000       136.79       870.91      -1.1182     
    164     (1,1629)              135.68       0.62707      2.0000       136.79       874.37      -1.1092     
    165     (1,1628)              135.68       0.63139      2.0000       136.79       865.73      -1.1054     
    166     (1,1625)              135.64       0.63573      2.0000       136.77       870.91      -1.1323     
    167     (1,1624)              135.61       0.64017      2.0000       136.76       879.55      -1.1485     
    168     (1,1621)              135.61       0.64472      2.0000       136.81       881.28      -1.1919     
    169     (1,1620)              135.62       0.64951      2.0000       136.87       900.29      -1.2478     
    170     (1,1617)              135.62       0.65375      2.0000       137.29       487.30      -1.6642     
    171     (1,1615)              135.56       0.65685      2.0000       136.88       461.38      -1.3217     
    172     (1,1614)              135.56       0.66063      2.0000       136.75       946.94      -1.1888     
    173     (1,1611)              135.56       0.66499      2.0000       137.07       589.25      -1.5073     
    174     (1,1525)              135.56       0.66802      2.0000       136.83       406.08      -1.2731     
    175     (1,1524)              135.44       0.67160      2.0000       136.63       965.95      -1.1859     
    176     (1,1521)              135.45       0.67607      2.0000       137.08       577.15      -1.6315     
    177     (1,1519)              135.45       0.67923      2.0000       136.71       428.54      -1.2604     
    178     (1,1518)              135.45       0.68271      2.0000       136.66       905.47      -1.2082     
    179     (1,1515)              135.46       0.68728      2.0000       137.43       539.14      -1.9722     
    180     (1,1431)              135.46       0.69192      2.0000       136.77       864.00      -1.3098     
    181     (1,1429)              135.47       0.69637      2.0000       136.74       774.14      -1.2757     
    182     (1,1432)              135.43       0.69957      2.0000       136.51       502.85      -1.0756     
    183     (1,1353)              135.42       0.70256      2.0000       136.41       907.20      -0.98548    
    184     (1,1351)              135.43       0.70622      2.0000       136.40       883.01      -0.97758    
    185     (1,1274)              135.43       0.70983      2.0000       136.40       902.02      -0.97284    
    186     (1,1272)              135.42       0.71341      2.0000       136.37       900.29      -0.94964    
    187     (1,1194)              135.10       0.71731      2.0000       136.22       927.94      -1.1192     
    188     (1,1192)              134.99       0.72164      2.0000       136.25       853.63      -1.2600     
    189     (1,1189)              134.99       0.72427      2.0000       136.69       122.69      -1.6987     
    190     (1,1111)              134.90       0.72719      2.0000       136.13       991.87      -1.2340     
    191     (1,1109)              134.90       0.73135      2.0000       136.21       628.99      -1.3047     
    192     (1,1108)              134.90       0.73417      2.0000       136.50       361.15      -1.5926     
    193     (1,1030)              134.91       0.73757      2.0000       136.04       979.78      -1.1288     
    194     (1,1028)              134.91       0.74195      2.0000       136.11       889.92      -1.2029     
    195     (1,950)               134.91       0.74471      2.0000       136.53       186.62      -1.6201     
    196     (1,947)               134.82       0.74741      2.0000       136.10       813.89      -1.2868     
    197     (1,945)               134.82       0.75101      2.0000       136.21       546.05      -1.3873     
    198     (1,944)               134.82       0.75467      2.0000       136.10       848.45      -1.2725     
    199     (1,866)               134.83       0.75785      2.0000       136.30       354.24      -1.4752     
    200     (1,863)               134.83       0.76100      2.0000       136.16       803.52      -1.3328     
    201     (1,861)               134.83       0.76474      2.0000       136.19       608.26      -1.3526     
    202     (1,860)               134.84       0.76789      2.0000       136.33       521.86      -1.4914     
    203     (1,782)               134.84       0.77152      2.0000       136.14       822.53      -1.3025     
    204     (1,779)               134.83       0.77446      2.0000       136.55       252.29      -1.7172     
    205     (1,777)               134.84       0.77815      2.0000       136.13       1130.1      -1.2915     
    206     (1,700)               134.84       0.78103      2.0000       136.59       12.096      -1.7446     
    207     (1,699)               134.84       0.78389      2.0000       136.12       1138.8      -1.2763     
    208     (1,697)               134.85       0.78722      2.0000       136.43       169.34      -1.5868     
    209     (1,694)               134.85       0.79007      2.0000       136.15       927.94      -1.3008     
    210     (1,618)               134.78       0.79369      2.0000       136.18       483.84      -1.3990     
    211     (1,617)               134.79       0.79655      2.0000       136.19       578.88      -1.4076     
    212     (1,615)               134.79       0.80009      2.0000       136.00       855.36      -1.2069     
    213     (1,612)               134.79       0.80310      2.0000       136.30       361.15      -1.5058     
    214     (1,537)               134.80       0.80611      2.0000       135.91       936.58      -1.1105     
    215     (1,535)               134.63       0.80954      2.0000       135.85       627.26      -1.2196     
    216     (1,534)               134.63       0.81320      2.0000       135.83       976.32      -1.1976     
    217     (1,531)               134.64       0.81546      2.0000       136.43       15.552      -1.7904     
    218     (1,457)               134.64       0.81773      2.0000       135.76       1042.0      -1.1267     
    219     (1,455)               134.64       0.82187      2.0000       135.65       1024.7      -1.0049     
    220     (1,382)               134.64       0.82479      2.0000       136.00       388.80      -1.3560     
    221     (1,381)               134.65       0.82762      2.0000       135.71       927.94      -1.0613     
    222     (1,378)               134.65       0.83120      2.0000       135.70       889.92      -1.0490     
    223     (1,377)               134.65       0.83485      2.0000       135.77       919.30      -1.1188     
    224     (1,375)               134.66       0.83716      2.0000       135.99       160.70      -1.3354     
    225     (1,372)               134.66       0.83965      2.0000       135.75       1038.5      -1.0873     
    226     (1,371)               134.66       0.84260      2.0000       136.09       326.59      -1.4300     
    227     (1,299)               134.66       0.84494      2.0000       135.81       701.57      -1.1422     
    228     (1,296)               134.67       0.84829      2.0000       135.79       907.20      -1.1248     
    229     (1,294)               134.67       0.85045      2.0000       135.98       119.23      -1.3114     
    230     (1,293)               134.67       0.85245      2.0000       135.69       921.02      -1.0133     
    231     (1,290)               134.68       0.85581      2.0000       135.70       884.74      -1.0225     
    232     (1,289)               134.68       0.85936      2.0000       135.83       908.93      -1.1476     
    233     (1,286)               134.68       0.86160      2.0000       136.30       114.05      -1.6166     
    234     (1,250)               134.68       0.86345      2.0000       135.74       789.70      -1.0541     
    235     (1,249)               134.69       0.86679      2.0000       135.72       979.78      -1.0320     
    236     (1,246)               134.46       0.86971      2.0000       136.01       387.07      -1.5487     
    237     (1,244)               134.38       0.87214      2.0000       135.54       644.54      -1.1574     
    238     (1,243)               134.16       0.87548      2.0000       135.57       786.24      -1.4108     
    239     (1,209)               134.16       0.87843      2.0000       135.48       402.62      -1.3217     
    240     (1,206)               134.16       0.88128      2.0000       135.45       819.07      -1.2897     
    241     (1,204)               134.16       0.88407      2.0000       135.41       402.62      -1.2508     
    242     (1,203)               134.17       0.88677      2.0000       135.40       819.07      -1.2287     
    243     (1,171)               134.17       0.88943      2.0000       135.39       399.17      -1.2202     
    244     (1,168)               134.17       0.89234      2.0000       135.30       1017.8      -1.1300     
    245     (1,166)               134.17       0.89452      2.0000       135.54       57.024      -1.3672     
    246     (1,165)               134.18       0.89688      2.0000       135.25       1164.7      -1.0758     
    247     (1,135)               134.18       0.89923      2.0000       135.52       57.024      -1.3433     
    248     (1,132)               134.18       0.90150      2.0000       135.22       1164.7      -1.0362     
    249     (1,130)               134.18       0.90376      2.0000       135.49       57.024      -1.3076     
    250     (1,129)               134.19       0.90596      2.0000       135.20       1164.7      -1.0103     
    251     (1,101)               134.19       0.90816      2.0000       135.45       57.024      -1.2659     
    252     (1,98)                134.19       0.91030      2.0000       135.17       1164.7      -0.98456    
    253     (1,96)                134.19       0.91243      2.0000       135.42       57.024      -1.2227     
    254     (1,95)                134.19       0.91450      2.0000       135.15       1164.7      -0.95498    
    255     (1,69)                134.20       0.91656      2.0000       135.37       57.024      -1.1740     
    256     (1,66)                134.20       0.91857      2.0000       135.12       1178.5      -0.92434    
    257     (1,65)                134.20       0.92060      2.0000       135.70       48.384      -1.4962     
    258     (1,63)                134.19       0.92233      2.0000       135.06       1061.0      -0.86880    
    259     (1,60)                134.19       0.92460      2.0000       135.53       288.58      -1.3349     
    260     (1,36)                134.08       0.92676      2.0000       135.00       934.85      -0.92205    
    261     (1,35)                134.08       0.92908      2.0000       135.42       357.70      -1.3367     
    262     (1,33)                134.08       0.93106      2.0000       135.02       708.48      -0.94149    
    263     (1,30)                134.08       0.93358      2.0000       135.33       634.18      -1.2494     
    264     (1,8)                 134.09       0.93602      2.0000       135.15       589.25      -1.0640     
    265     (1,7)                 134.09       0.93864      2.0000       135.50       634.18      -1.4106     
    266     (1,5)                 134.09       0.94036      2.0000       135.66       69.120      -1.5686     
 -------------------------------------------------------------------------------------------------------------



 SFR PACKAGE - SUMMARY OF FLOWS FOR EACH CONTROL VOLUME   PERIOD      2   STEP       48
 ------------------------------------------------------------------------------------------------------------------------------------------------------------------------------
                                                                                                                                                                     PERCENT   
   NUMBER   CELLID                  INFLOW      OUTFLOW        GWF        RAINFALL   EVAPORATION     RUNOFF     EXT INFLOW  EXT OUTFLOW    STORAGE      IN - OUT    DIFFERENCE 
 ------------------------------------------------------------------------------------------------------------------------------------------------------------------------------
     1      (2,2565)              0.0000       0.0000       0.0000       0.0000       0.0000       0.0000       0.0000       0.0000       0.0000       0.0000       0.0000     
     2      (2,2563)              0.0000      -4.1614       4.1614       0.0000       0.0000       0.0000       0.0000       0.0000       0.0000       0.0000       0.0000     
     3      (2,2561)              4.1614      -42.443       38.281       0.0000       0.0000       0.0000       0.0000       0.0000       0.0000       0.0000       0.0000     
     4      (2,2560)              42.443      -75.336       32.894       0.0000       0.0000       0.0000       0.0000       0.0000       0.0000       0.0000       0.0000     
     5      (2,2557)              75.336      -85.899       10.563       0.0000       0.0000       0.0000       0.0000       0.0000       0.0000       0.0000       0.0000     
     6      (2,2485)              85.899      -114.74       28.841       0.0000       0.0000       0.0000       0.0000       0.0000       0.0000       0.0000       0.0000     
     7      (2,2484)              114.74      -146.56       31.819       0.0000       0.0000       0.0000       0.0000       0.0000       0.0000       0.0000       0.0000     
     8      (2,2481)              146.56      -151.96       5.3987       0.0000       0.0000       0.0000       0.0000       0.0000       0.0000       0.0000       0.0000     
     9      (2,2479)              151.96      -218.48       66.518       0.0000       0.0000       0.0000       0.0000       0.0000       0.0000       0.0000       0.0000     
     10     (2,2478)              218.48      -255.85       37.374       0.0000       0.0000       0.0000       0.0000       0.0000       0.0000       0.0000       0.0000     
     11     (2,2399)              255.85      -295.54       39.693       0.0000       0.0000       0.0000       0.0000       0.0000       0.0000       0.0000       0.0000     
     12     (2,2396)              295.54      -317.97       22.424       0.0000       0.0000       0.0000       0.0000       0.0000       0.0000       0.0000       0.0000     
     13     (2,2394)              317.97      -418.65       100.69       0.0000       0.0000       0.0000       0.0000       0.0000       0.0000       0.0000       0.0000     
     14     (2,2393)              418.65      -427.52       8.8667       0.0000       0.0000       0.0000       0.0000       0.0000       0.0000       0.0000       0.0000     
     15     (2,2304)              427.52      -608.20       180.68       0.0000       0.0000       0.0000       0.0000       0.0000       0.0000       0.0000       0.0000     
     16     (2,2301)              608.20      -762.67       154.47       0.0000       0.0000       0.0000       0.0000       0.0000       0.0000       0.0000       0.0000     
     17     (2,2300)              762.67      -781.13       18.463       0.0000       0.0000       0.0000       0.0000       0.0000       0.0000       0.0000       0.0000     
     18     (2,2389)              781.13      -855.38       74.252       0.0000       0.0000       0.0000       0.0000       0.0000       0.0000       0.0000       0.0000     
     19     (2,2386)              855.38      -963.31       107.93       0.0000       0.0000       0.0000       0.0000       0.0000       0.0000       0.0000       0.0000     
     20     (2,2385)              963.31      -1008.3       45.030       0.0000       0.0000       0.0000       0.0000       0.0000       0.0000       0.0000       0.0000     
     21     (2,2296)              1008.3      -1139.5       131.16       0.0000       0.0000       0.0000       0.0000       0.0000       0.0000       0.0000       0.0000     
     22     (2,2293)              1139.5      -1295.8       156.29       0.0000       0.0000       0.0000       0.0000       0.0000       0.0000       0.0000       0.0000     
     23     (2,2292)              1295.8      -1448.2       152.43       0.0000       0.0000       0.0000       0.0000       0.0000       0.0000       0.0000       0.0000     
     24     (2,2289)              1448.2      -1633.9       185.66       0.0000       0.0000       0.0000       0.0000       0.0000       0.0000       0.0000       0.0000     
     25     (2,2288)              1633.9      -1690.2       56.325       0.0000       0.0000       0.0000       0.0000       0.0000       0.0000       0.0000       0.0000     
     26     (2,2286)              1690.2      -2043.0       352.79       0.0000       0.0000       0.0000       0.0000       0.0000       0.0000       0.0000       0.0000     
     27     (1,2283)              2043.0      -2557.0       513.95       0.0000       0.0000       0.0000       0.0000       0.0000       0.0000       0.0000       0.0000     
     28     (1,2282)              2557.0      -3074.0       517.00       0.0000       0.0000       0.0000       0.0000       0.0000       0.0000       0.0000       0.0000     
     29     (1,2279)              3074.0      -3620.5       546.58       0.0000       0.0000       0.0000       0.0000       0.0000       0.0000       0.0000       0.0000     
     30     (1,2278)              3620.5      -4212.4       591.90       0.0000       0.0000       0.0000       0.0000       0.0000       0.0000       0.0000       0.0000     
     31     (1,2275)              4212.4      -4367.7       155.27       0.0000       0.0000       0.0000       0.0000       0.0000       0.0000       0.0000       0.0000     
     32     (1,2277)              4367.7      -4755.1       387.39       0.0000       0.0000       0.0000       0.0000       0.0000       0.0000       0.0000       0.0000     
     33     (1,2276)              4755.1      -5212.1       457.03       0.0000       0.0000       0.0000       0.0000       0.0000       0.0000       0.0000       0.0000     
     34     (1,2273)              5212.1      -5688.6       476.44       0.0000       0.0000       0.0000       0.0000       0.0000       0.0000       0.0000       0.0000     
     35     (1,2272)              5688.6      -5988.3       299.71       0.0000       0.0000       0.0000       0.0000       0.0000       0.0000       0.0000       0.0000     
     36     (1,2376)              5988.3      -6200.0       211.75       0.0000       0.0000       0.0000       0.0000       0.0000       0.0000       0.0000       0.0000     
     37     (1,2373)              6200.0      -6550.7       350.70       0.0000       0.0000       0.0000       0.0000       0.0000       0.0000       0.0000       0.0000     
     38     (1,2372)              6550.7      -6858.7       307.96       0.0000       0.0000       0.0000       0.0000       0.0000       0.0000       0.0000       0.0000     
     39     (1,2369)              6858.7      -7112.7       254.01       0.0000       0.0000       0.0000       0.0000       0.0000       0.0000       0.0000       0.0000     
     40     (1,2368)              7112.7      -7565.4       452.67       0.0000       0.0000       0.0000       0.0000       0.0000       0.0000       0.0000       0.0000     
     41     (1,2370)              7565.4      -7604.0       38.612       0.0000       0.0000       0.0000       0.0000       0.0000       0.0000       0.0000       0.0000     
     42     (1,2367)              7604.0      -8080.5       476.49       0.0000       0.0000       0.0000       0.0000       0.0000       0.0000       0.0000       0.0000     
     43     (1,2366)              8080.5      -8596.2       515.76       0.0000       0.0000       0.0000       0.0000       0.0000       0.0000       0.0000       0.0000     
     44     (1,2363)              8596.2      -9290.1       693.84       0.0000       0.0000       0.0000       0.0000       0.0000       0.0000       0.0000       0.0000     
     45     (1,2362)              9290.1      -10116.       826.33       0.0000       0.0000       0.0000       0.0000       0.0000       0.0000       0.0000       0.0000     
     46     (1,2462)              10116.      -10123.       6.5074       0.0000       0.0000       0.0000       0.0000       0.0000       0.0000       0.0000       0.0000     
     47     (1,2459)              10123.      -11059.       935.81       0.0000       0.0000       0.0000       0.0000       0.0000       0.0000       0.0000       0.0000     
     48     (1,2458)              11059.      -11418.       359.54       0.0000       0.0000       0.0000       0.0000       0.0000       0.0000       0.0000       0.0000     
     49     (1,2460)              11418.      -12097.       678.87       0.0000       0.0000       0.0000       0.0000       0.0000       0.0000       0.0000       0.0000     
     50     (1,2457)              12097.      -12741.       643.79       0.0000       0.0000       0.0000       0.0000       0.0000       0.0000       0.0000       0.0000     
     51     (1,2538)              12741.      -13185.       444.17       0.0000       0.0000       0.0000       0.0000       0.0000       0.0000       0.0000       0.0000     
     52     (1,2537)              13185.      -14044.       858.83       0.0000       0.0000       0.0000       0.0000       0.0000       0.0000       0.0000       0.0000     
     53     (1,2539)              14044.      -14256.       211.91       0.0000       0.0000       0.0000       0.0000       0.0000       0.0000       0.0000       0.0000     
     54     (1,2536)              14256.      -15018.       762.06       0.0000       0.0000       0.0000       0.0000       0.0000       0.0000       0.0000       0.0000     
     55     (1,2614)              15018.      -15561.       543.02       0.0000       0.0000       0.0000       0.0000       0.0000       0.0000       0.0000       0.0000     
     56     (1,2613)              15561.      -15957.       395.90       0.0000       0.0000       0.0000       0.0000       0.0000       0.0000       0.0000       0.0000     
     57     (1,2615)              15957.      -16653.       696.01       0.0000       0.0000       0.0000       0.0000       0.0000       0.0000       0.0000       0.0000     
     58     (1,2682)              16653.      -17346.       693.58       0.0000       0.0000       0.0000       0.0000       0.0000       0.0000       0.0000       0.0000     
     59     (1,2684)              17346.      -17875.       528.46       0.0000       0.0000       0.0000       0.0000       0.0000       0.0000       0.0000       0.0000     
     60     (1,2681)              17875.      -18278.       402.81       0.0000       0.0000       0.0000       0.0000       0.0000       0.0000       0.0000       0.0000     
     61     (1,2762)              18278.      -18945.       667.70       0.0000       0.0000       0.0000       0.0000       0.0000       0.0000       0.0000       0.0000     
     62     (1,2761)              18945.      -19247.       301.40       0.0000       0.0000       0.0000       0.0000       0.0000       0.0000       0.0000       0.0000     
     63     (1,2763)              19247.      -19738.       491.05       0.0000       0.0000       0.0000       0.0000       0.0000       0.0000       0.0000       0.0000     
     64     (1,2760)              19738.      -20366.       628.26       0.0000       0.0000       0.0000       0.0000       0.0000       0.0000       0.0000       0.0000     
     65     (1,2759)              20366.      -20935.       568.43       0.0000       0.0000       0.0000       0.0000       0.0000       0.0000       0.0000       0.0000     
     66     (1,2756)              20935.      -21507.       572.32       0.0000       0.0000       0.0000       0.0000       0.0000       0.0000       0.0000       0.0000     
     67     (1,2755)              21507.      -22142.       635.35       0.0000       0.0000       0.0000       0.0000       0.0000       0.0000       0.0000       0.0000     
     68     (1,2752)              22142.      -22775.       633.16       0.0000       0.0000       0.0000       0.0000       0.0000       0.0000       0.0000       0.0000     
     69     (1,2751)              22775.      -23485.       709.27       0.0000       0.0000       0.0000       0.0000       0.0000       0.0000       0.0000       0.0000     
     70     (1,2748)              23485.      -23528.       43.621       0.0000       0.0000       0.0000       0.0000       0.0000       0.0000       0.0000       0.0000     
     71     (1,2831)              23528.      -24150.       621.62       0.0000       0.0000       0.0000       0.0000       0.0000       0.0000       0.0000       0.0000     
     72     (1,2830)              24150.      -24742.       591.81       0.0000       0.0000       0.0000       0.0000       0.0000       0.0000       0.0000       0.0000     
     73     (1,2827)              24742.      -25021.       279.28       0.0000       0.0000       0.0000       0.0000       0.0000       0.0000       0.0000       0.0000     
     74     (1,2829)              25021.      -25418.       396.64       0.0000       0.0000       0.0000       0.0000       0.0000       0.0000       0.0000       0.0000     
     75     (1,2828)              25418.      -25932.       513.98       0.0000       0.0000       0.0000       0.0000       0.0000       0.0000       0.0000       0.0000     
     76     (1,2825)              25932.      -26453.       521.37       0.0000       0.0000       0.0000       0.0000       0.0000       0.0000       0.0000       0.0000     
     77     (1,2824)              26453.      -26685.       232.10       0.0000       0.0000       0.0000       0.0000       0.0000       0.0000       0.0000       0.0000     
     78     (1,2895)              26685.      -27066.       381.03       0.0000       0.0000       0.0000       0.0000       0.0000       0.0000       0.0000       0.0000     
     79     (1,2892)              27066.      -27529.       462.89       0.0000       0.0000       0.0000       0.0000       0.0000       0.0000       0.0000       0.0000     
     80     (1,2891)              27529.      -27977.       447.65       0.0000       0.0000       0.0000       0.0000       0.0000       0.0000       0.0000       0.0000     
     81     (1,2888)              27977.      -28387.       410.17       0.0000       0.0000       0.0000       0.0000       0.0000       0.0000       0.0000       0.0000     
     82     (1,2887)              28387.      -28939.       552.54       0.0000       0.0000       0.0000       0.0000       0.0000       0.0000       0.0000       0.0000     
     83     (1,2884)              28939.      -29100.       160.92       0.0000       0.0000       0.0000       0.0000       0.0000       0.0000       0.0000       0.0000     
     84     (1,2819)              29100.      -29627.       526.28       0.0000       0.0000       0.0000       0.0000       0.0000       0.0000       0.0000       0.0000     
     85     (1,2818)              29627.      -29787.       160.32       0.0000       0.0000       0.0000       0.0000       0.0000       0.0000       0.0000       0.0000     
     86     (1,2816)              29787.      -30333.       546.33       0.0000       0.0000       0.0000       0.0000       0.0000       0.0000       0.0000       0.0000     
     87     (1,2813)              30333.      -30516.       183.19       0.0000       0.0000       0.0000       0.0000       0.0000       0.0000       0.0000       0.0000     
     88     (1,2739)              30516.      -31118.       601.89       0.0000       0.0000       0.0000       0.0000       0.0000       0.0000       0.0000       0.0000     
     89     (1,2738)              31118.      -31343.       224.56       0.0000       0.0000       0.0000       0.0000       0.0000       0.0000       0.0000       0.0000     
     90     (1,2736)              31343.      -32110.       767.08       0.0000       0.0000       0.0000       0.0000       0.0000       0.0000       0.0000       0.0000     
     91     (1,2733)              32110.      -32362.       252.02       0.0000       0.0000       0.0000       0.0000       0.0000       0.0000       0.0000       0.0000     
     92     (1,2667)              32362.      -33206.       844.36       0.0000       0.0000       0.0000       0.0000       0.0000       0.0000       0.0000       0.0000     
     93     (1,2666)              33206.      -33434.       227.27       0.0000       0.0000       0.0000       0.0000       0.0000       0.0000       0.0000       0.0000     
     94     (1,2664)              33434.      -34277.       843.41       0.0000       0.0000       0.0000       0.0000       0.0000       0.0000       0.0000       0.0000     
     95     (1,2600)              34277.      -34704.       426.97       0.0000       0.0000       0.0000       0.0000       0.0000       0.0000       0.0000       0.0000     
     96     (1,2597)              34704.      -35455.       750.61       0.0000       0.0000       0.0000       0.0000       0.0000       0.0000       0.0000       0.0000     
     97     (1,2595)              35455.      -36321.       866.19       0.0000       0.0000       0.0000       0.0000       0.0000       0.0000       0.0000       0.0000     
     98     (1,2520)              36321.      -36638.       317.10       0.0000       0.0000       0.0000       0.0000       0.0000       0.0000       0.0000       0.0000     
     99     (1,2519)              36638.      -37453.       815.05       0.0000       0.0000       0.0000       0.0000       0.0000       0.0000       0.0000       0.0000     
    100     (1,2517)              37453.      -38285.       832.39       0.0000       0.0000       0.0000       0.0000       0.0000       0.0000       0.0000       0.0000     
    101     (1,2436)              38285.      -39163.       877.42       0.0000       0.0000       0.0000       0.0000       0.0000       0.0000       0.0000       0.0000     
    102     (1,2434)              39163.      -39797.       633.95       0.0000       0.0000       0.0000       0.0000       0.0000       0.0000       0.0000       0.0000     
    103     (1,2435)              39797.      -40678.       881.50       0.0000       0.0000       0.0000       0.0000       0.0000       0.0000       0.0000       0.0000     
    104     (1,2438)              40678.      -41029.       351.07       0.0000       0.0000       0.0000       0.0000       0.0000       0.0000       0.0000       0.0000     
    105     (1,2344)              41029.      -41800.       770.56       0.0000       0.0000       0.0000       0.0000       0.0000       0.0000       0.0000       0.0000     
    106     (1,2342)              41800.      -42354.       554.08       0.0000       0.0000       0.0000       0.0000       0.0000       0.0000       0.0000       0.0000     
    107     (1,2343)              42354.      -42842.       487.80       0.0000       0.0000       0.0000       0.0000       0.0000       0.0000       0.0000       0.0000     
    108     (1,2251)              42842.      -43677.       835.70       0.0000       0.0000       0.0000       0.0000       0.0000       0.0000       0.0000       0.0000     
    109     (1,2249)              43677.      -44447.       769.25       0.0000       0.0000       0.0000       0.0000       0.0000       0.0000       0.0000       0.0000     
    110     (1,2183)              44447.      -45317.       870.61       0.0000       0.0000       0.0000       0.0000       0.0000       0.0000       0.0000       0.0000     
    111     (1,2181)              45317.      -46158.       840.45       0.0000       0.0000       0.0000       0.0000       0.0000       0.0000       0.0000       0.0000     
    112     (1,2114)              46158.      -47008.       850.58       0.0000       0.0000       0.0000       0.0000       0.0000       0.0000       0.0000       0.0000     
    113     (1,2112)              47008.      -47867.       858.29       0.0000       0.0000       0.0000       0.0000       0.0000       0.0000       0.0000       0.0000     
    114     (1,2044)              47867.      -48373.       506.41       0.0000       0.0000       0.0000       0.0000       0.0000       0.0000       0.0000       0.0000     
    115     (1,2043)              48373.      -48898.       525.49       0.0000       0.0000       0.0000       0.0000       0.0000       0.0000       0.0000       0.0000     
    116     (1,2041)              48898.      -49757.       858.50       0.0000       0.0000       0.0000       0.0000       0.0000       0.0000       0.0000       0.0000     
    117     (1,1972)              49757.      -49902.       144.67       0.0000       0.0000       0.0000       0.0000       0.0000       0.0000       0.0000       0.0000     
    118     (1,1969)              49902.      -50730.       827.90       0.0000       0.0000       0.0000       0.0000       0.0000       0.0000       0.0000       0.0000     
    119     (1,1967)              50730.      -51129.       399.41       0.0000       0.0000       0.0000       0.0000       0.0000       0.0000       0.0000       0.0000     
    120     (1,1966)              51129.      -51672.       542.77       0.0000       0.0000       0.0000       0.0000       0.0000       0.0000       0.0000       0.0000     
    121     (1,1893)              51672.      -52368.       696.16       0.0000       0.0000       0.0000       0.0000       0.0000       0.0000       0.0000       0.0000     
    122     (1,1894)              52368.      -52536.       168.42       0.0000       0.0000       0.0000       0.0000       0.0000       0.0000       0.0000       0.0000     
    123     (1,1892)              52536.      -53097.       561.15       0.0000       0.0000       0.0000       0.0000       0.0000       0.0000       0.0000       0.0000     
    124     (1,1895)              53097.      -53718.       620.61       0.0000       0.0000       0.0000       0.0000       0.0000       0.0000       0.0000       0.0000     
    125     (1,1896)              53718.      -54475.       756.78       0.0000       0.0000       0.0000       0.0000       0.0000       0.0000       0.0000       0.0000     
    126     (1,1819)              54475.      -54665.       190.61       0.0000       0.0000       0.0000       0.0000       0.0000       0.0000       0.0000       0.0000     
    127     (1,1822)              54665.      -55747.       1081.9       0.0000       0.0000       0.0000       0.0000       0.0000       0.0000       0.0000       0.0000     
    128     (1,1820)              55747.      -56833.       1085.5       0.0000       0.0000       0.0000       0.0000       0.0000       0.0000       0.0000       0.0000     
    129     (1,1745)              56833.      -58343.       1510.5       0.0000       0.0000       0.0000       0.0000       0.0000       0.0000       0.0000       0.0000     
    130     (1,1742)              58343.      -59195.       851.60       0.0000       0.0000       0.0000       0.0000       0.0000       0.0000       0.0000       0.0000     
    131     (1,1741)              59195.      -59868.       673.44       0.0000       0.0000       0.0000       0.0000       0.0000       0.0000       0.0000       0.0000     
    132     (1,1738)              59868.      -60493.       624.37       0.0000       0.0000       0.0000       0.0000       0.0000       0.0000       0.0000       0.0000     
    133     (1,1737)              60493.      -60827.       333.79       0.0000       0.0000       0.0000       0.0000       0.0000       0.0000       0.0000       0.0000     
    134     (1,1735)              60827.      -61368.       541.10       0.0000       0.0000       0.0000       0.0000       0.0000       0.0000       0.0000       0.0000     
    135     (1,1732)              61368.      -61545.       177.80       0.0000       0.0000       0.0000       0.0000       0.0000       0.0000       0.0000       0.0000     
    136     (1,1653)              61545.      -62080.       534.86       0.0000       0.0000       0.0000       0.0000       0.0000       0.0000       0.0000       0.0000     
    137     (1,1651)              62080.      -62628.       548.07       0.0000       0.0000       0.0000       0.0000       0.0000       0.0000       0.0000       0.0000     
    138     (1,1654)              62628.      -63157.       528.21       0.0000       0.0000       0.0000       0.0000       0.0000       0.0000       0.0000       0.0000     
    139     (1,1655)              63157.      -63965.       808.53       0.0000       0.0000       0.0000       0.0000       0.0000       0.0000       0.0000       0.0000     
    140     (1,1658)              63965.      -64369.       403.60       0.0000       0.0000       0.0000       0.0000       0.0000       0.0000       0.0000       0.0000     
    141     (1,1548)              64369.      -65603.       1234.3       0.0000       0.0000       0.0000       0.0000       0.0000       0.0000       0.0000       0.0000     
    142     (1,1546)              65603.      -66673.       1070.0       0.0000       0.0000       0.0000       0.0000       0.0000       0.0000       0.0000       0.0000     
    143     (1,1543)              66673.      -67624.       951.28       0.0000       0.0000       0.0000       0.0000       0.0000       0.0000       0.0000       0.0000     
    144     (1,1453)              67624.      -68340.       715.25       0.0000       0.0000       0.0000       0.0000       0.0000       0.0000       0.0000       0.0000     
    145     (1,1452)              68340.      -69682.       1342.8       0.0000       0.0000       0.0000       0.0000       0.0000       0.0000       0.0000       0.0000     
    146     (1,1449)              69682.      -70909.       1226.8       0.0000       0.0000       0.0000       0.0000       0.0000       0.0000       0.0000       0.0000     
    147     (1,1448)              70909.      -71410.       500.79       0.0000       0.0000       0.0000       0.0000       0.0000       0.0000       0.0000       0.0000     
    148     (1,1538)              71410.      -72065.       654.61       0.0000       0.0000       0.0000       0.0000       0.0000       0.0000       0.0000       0.0000     
    149     (1,1535)              72065.      -73030.       965.59       0.0000       0.0000       0.0000       0.0000       0.0000       0.0000       0.0000       0.0000     
    150     (1,1537)              73030.      -73706.       676.01       0.0000       0.0000       0.0000       0.0000       0.0000       0.0000       0.0000       0.0000     
    151     (1,1647)              73706.      -74234.       528.07       0.0000       0.0000       0.0000       0.0000       0.0000       0.0000       0.0000       0.0000     
    152     (1,1649)              74234.      -74815.       580.39       0.0000       0.0000       0.0000       0.0000       0.0000       0.0000       0.0000       0.0000     
    153     (1,1648)              74815.      -75417.       602.44       0.0000       0.0000       0.0000       0.0000       0.0000       0.0000       0.0000       0.0000     
    154     (1,1645)              75417.      -76157.       739.96       0.0000       0.0000       0.0000       0.0000       0.0000       0.0000       0.0000       0.0000     
    155     (1,1644)              76157.      -76780.       623.19       0.0000       0.0000       0.0000       0.0000       0.0000       0.0000       0.0000       0.0000     
    156     (1,1642)              76780.      -77246.       465.59       0.0000       0.0000       0.0000       0.0000       0.0000       0.0000       0.0000       0.0000     
    157     (1,1639)              77246.      -78196.       950.67       0.0000       0.0000       0.0000       0.0000       0.0000       0.0000       0.0000       0.0000     
    158     (1,1638)              78196.      -78689.       492.12       0.0000       0.0000       0.0000       0.0000       0.0000       0.0000       0.0000       0.0000     
    159     (1,1640)              78689.      -79350.       661.25       0.0000       0.0000       0.0000       0.0000       0.0000       0.0000       0.0000       0.0000     
    160     (1,1637)              79350.      -80315.       965.52       0.0000       0.0000       0.0000       0.0000       0.0000       0.0000       0.0000       0.0000     
    161     (1,1636)              80315.      -81261.       946.04       0.0000       0.0000       0.0000       0.0000       0.0000       0.0000       0.0000       0.0000     
    162     (1,1633)              81261.      -82220.       958.35       0.0000       0.0000       0.0000       0.0000       0.0000       0.0000       0.0000       0.0000     
    163     (1,1632)              82220.      -83194.       973.84       0.0000       0.0000       0.0000       0.0000       0.0000       0.0000       0.0000       0.0000     
    164     (1,1629)              83194.      -84163.       969.88       0.0000       0.0000       0.0000       0.0000       0.0000       0.0000       0.0000       0.0000     
    165     (1,1628)              84163.      -85120.       957.00       0.0000       0.0000       0.0000       0.0000       0.0000       0.0000       0.0000       0.0000     
    166     (1,1625)              85120.      -86107.       986.16       0.0000       0.0000       0.0000       0.0000       0.0000       0.0000       0.0000       0.0000     
    167     (1,1624)              86107.      -87117.       1010.1       0.0000       0.0000       0.0000       0.0000       0.0000       0.0000       0.0000       0.0000     
    168     (1,1621)              87117.      -88167.       1050.4       0.0000       0.0000       0.0000       0.0000       0.0000       0.0000       0.0000       0.0000     
    169     (1,1620)              88167.      -89291.       1123.3       0.0000       0.0000       0.0000       0.0000       0.0000       0.0000       0.0000       0.0000     
    170     (1,1617)              89291.      -90102.       810.97       0.0000       0.0000       0.0000       0.0000       0.0000       0.0000       0.0000       0.0000     
    171     (1,1615)              90102.      -90711.       609.79       0.0000       0.0000       0.0000       0.0000       0.0000       0.0000       0.0000       0.0000     
    172     (1,1614)              90711.      -91837.       1125.8       0.0000       0.0000       0.0000       0.0000       0.0000       0.0000       0.0000       0.0000     
    173     (1,1611)              91837.      -92725.       888.18       0.0000       0.0000       0.0000       0.0000       0.0000       0.0000       0.0000       0.0000     
    174     (1,1525)              92725.      -93242.       516.96       0.0000       0.0000       0.0000       0.0000       0.0000       0.0000       0.0000       0.0000     
    175     (1,1524)              93242.      -94388.       1145.6       0.0000       0.0000       0.0000       0.0000       0.0000       0.0000       0.0000       0.0000     
    176     (1,1521)              94388.      -95329.       941.62       0.0000       0.0000       0.0000       0.0000       0.0000       0.0000       0.0000       0.0000     
    177     (1,1519)              95329.      -95870.       540.12       0.0000       0.0000       0.0000       0.0000       0.0000       0.0000       0.0000       0.0000     
    178     (1,1518)              95870.      -96963.       1094.0       0.0000       0.0000       0.0000       0.0000       0.0000       0.0000       0.0000       0.0000     
    179     (1,1515)              96963.      -98027.       1063.3       0.0000       0.0000       0.0000       0.0000       0.0000       0.0000       0.0000       0.0000     
    180     (1,1431)              98027.      -99158.       1131.7       0.0000       0.0000       0.0000       0.0000       0.0000       0.0000       0.0000       0.0000     
    181     (1,1429)              99158.      -1.00146E+05  987.60       0.0000       0.0000       0.0000       0.0000       0.0000       0.0000       0.0000       0.0000     
    182     (1,1432)              1.00146E+05 -1.00687E+05  540.86       0.0000       0.0000       0.0000       0.0000       0.0000       0.0000       0.0000       0.0000     
    183     (1,1353)              1.00687E+05 -1.01581E+05  894.03       0.0000       0.0000       0.0000       0.0000       0.0000       0.0000       0.0000       0.0000     
    184     (1,1351)              1.01581E+05 -1.02444E+05  863.21       0.0000       0.0000       0.0000       0.0000       0.0000       0.0000       0.0000       0.0000     
    185     (1,1274)              1.02444E+05 -1.03322E+05  877.51       0.0000       0.0000       0.0000       0.0000       0.0000       0.0000       0.0000       0.0000     
    186     (1,1272)              1.03322E+05 -1.04177E+05  854.95       0.0000       0.0000       0.0000       0.0000       0.0000       0.0000       0.0000       0.0000     
    187     (1,1194)              1.04177E+05 -1.05215E+05  1038.6       0.0000       0.0000       0.0000       0.0000       0.0000       0.0000       0.0000       0.0000     
    188     (1,1192)              1.05215E+05 -1.06291E+05  1075.6       0.0000       0.0000       0.0000       0.0000       0.0000       0.0000       0.0000       0.0000     
    189     (1,1189)              1.06291E+05 -1.06499E+05  208.40       0.0000       0.0000       0.0000       0.0000       0.0000       0.0000       0.0000       0.0000     
    190     (1,1111)              1.06499E+05 -1.07723E+05  1224.0       0.0000       0.0000       0.0000       0.0000       0.0000       0.0000       0.0000       0.0000     
    191     (1,1109)              1.07723E+05 -1.08544E+05  820.63       0.0000       0.0000       0.0000       0.0000       0.0000       0.0000       0.0000       0.0000     
    192     (1,1108)              1.08544E+05 -1.09119E+05  575.16       0.0000       0.0000       0.0000       0.0000       0.0000       0.0000       0.0000       0.0000     
    193     (1,1030)              1.09119E+05 -1.10225E+05  1106.0       0.0000       0.0000       0.0000       0.0000       0.0000       0.0000       0.0000       0.0000     
    194     (1,1028)              1.10225E+05 -1.11295E+05  1070.5       0.0000       0.0000       0.0000       0.0000       0.0000       0.0000       0.0000       0.0000     
    195     (1,950)               1.11295E+05 -1.11598E+05  302.34       0.0000       0.0000       0.0000       0.0000       0.0000       0.0000       0.0000       0.0000     
    196     (1,947)               1.11598E+05 -1.12645E+05  1047.3       0.0000       0.0000       0.0000       0.0000       0.0000       0.0000       0.0000       0.0000     
    197     (1,945)               1.12645E+05 -1.13403E+05  757.51       0.0000       0.0000       0.0000       0.0000       0.0000       0.0000       0.0000       0.0000     
    198     (1,944)               1.13403E+05 -1.14482E+05  1079.6       0.0000       0.0000       0.0000       0.0000       0.0000       0.0000       0.0000       0.0000     
    199     (1,866)               1.14482E+05 -1.15005E+05  522.58       0.0000       0.0000       0.0000       0.0000       0.0000       0.0000       0.0000       0.0000     
    200     (1,863)               1.15005E+05 -1.16076E+05  1070.9       0.0000       0.0000       0.0000       0.0000       0.0000       0.0000       0.0000       0.0000     
    201     (1,861)               1.16076E+05 -1.16898E+05  822.72       0.0000       0.0000       0.0000       0.0000       0.0000       0.0000       0.0000       0.0000     
    202     (1,860)               1.16898E+05 -1.17677E+05  778.31       0.0000       0.0000       0.0000       0.0000       0.0000       0.0000       0.0000       0.0000     
    203     (1,782)               1.17677E+05 -1.18748E+05  1071.4       0.0000       0.0000       0.0000       0.0000       0.0000       0.0000       0.0000       0.0000     
    204     (1,779)               1.18748E+05 -1.19181E+05  433.24       0.0000       0.0000       0.0000       0.0000       0.0000       0.0000       0.0000       0.0000     
    205     (1,777)               1.19181E+05 -1.20641E+05  1459.6       0.0000       0.0000       0.0000       0.0000       0.0000       0.0000       0.0000       0.0000     
    206     (1,700)               1.20641E+05 -1.20662E+05  21.102       0.0000       0.0000       0.0000       0.0000       0.0000       0.0000       0.0000       0.0000     
    207     (1,699)               1.20662E+05 -1.22115E+05  1453.4       0.0000       0.0000       0.0000       0.0000       0.0000       0.0000       0.0000       0.0000     
    208     (1,697)               1.22115E+05 -1.22384E+05  268.71       0.0000       0.0000       0.0000       0.0000       0.0000       0.0000       0.0000       0.0000     
    209     (1,694)               1.22384E+05 -1.23591E+05  1207.0       0.0000       0.0000       0.0000       0.0000       0.0000       0.0000       0.0000       0.0000     
    210     (1,618)               1.23591E+05 -1.24268E+05  676.90       0.0000       0.0000       0.0000       0.0000       0.0000       0.0000       0.0000       0.0000     
    211     (1,617)               1.24268E+05 -1.25083E+05  814.85       0.0000       0.0000       0.0000       0.0000       0.0000       0.0000       0.0000       0.0000     
    212     (1,615)               1.25083E+05 -1.26115E+05  1032.4       0.0000       0.0000       0.0000       0.0000       0.0000       0.0000       0.0000       0.0000     
    213     (1,612)               1.26115E+05 -1.26659E+05  543.84       0.0000       0.0000       0.0000       0.0000       0.0000       0.0000       0.0000       0.0000     
    214     (1,537)               1.26659E+05 -1.27699E+05  1040.1       0.0000       0.0000       0.0000       0.0000       0.0000       0.0000       0.0000       0.0000     
    215     (1,535)               1.27699E+05 -1.28464E+05  765.00       0.0000       0.0000       0.0000       0.0000       0.0000       0.0000       0.0000       0.0000     
    216     (1,534)               1.28464E+05 -1.29633E+05  1169.3       0.0000       0.0000       0.0000       0.0000       0.0000       0.0000       0.0000       0.0000     
    217     (1,531)               1.29633E+05 -1.29661E+05  27.845       0.0000       0.0000       0.0000       0.0000       0.0000       0.0000       0.0000       0.0000     
    218     (1,457)               1.29661E+05 -1.30835E+05  1174.0       0.0000       0.0000       0.0000       0.0000       0.0000       0.0000       0.0000       0.0000     
    219     (1,455)               1.30835E+05 -1.31865E+05  1029.8       0.0000       0.0000       0.0000       0.0000       0.0000       0.0000       0.0000       0.0000     
    220     (1,382)               1.31865E+05 -1.32392E+05  527.20       0.0000       0.0000       0.0000       0.0000       0.0000       0.0000       0.0000       0.0000     
    221     (1,381)               1.32392E+05 -1.33377E+05  984.78       0.0000       0.0000       0.0000       0.0000       0.0000       0.0000       0.0000       0.0000     
    222     (1,378)               1.33377E+05 -1.34311E+05  933.56       0.0000       0.0000       0.0000       0.0000       0.0000       0.0000       0.0000       0.0000     
    223     (1,377)               1.34311E+05 -1.35339E+05  1028.5       0.0000       0.0000       0.0000       0.0000       0.0000       0.0000       0.0000       0.0000     
    224     (1,375)               1.35339E+05 -1.35554E+05  214.61       0.0000       0.0000       0.0000       0.0000       0.0000       0.0000       0.0000       0.0000     
    225     (1,372)               1.35554E+05 -1.36683E+05  1129.2       0.0000       0.0000       0.0000       0.0000       0.0000       0.0000       0.0000       0.0000     
    226     (1,371)               1.36683E+05 -1.37150E+05  467.02       0.0000       0.0000       0.0000       0.0000       0.0000       0.0000       0.0000       0.0000     
    227     (1,299)               1.37150E+05 -1.37951E+05  801.35       0.0000       0.0000       0.0000       0.0000       0.0000       0.0000       0.0000       0.0000     
    228     (1,296)               1.37951E+05 -1.38972E+05  1020.4       0.0000       0.0000       0.0000       0.0000       0.0000       0.0000       0.0000       0.0000     
    229     (1,294)               1.38972E+05 -1.39128E+05  156.36       0.0000       0.0000       0.0000       0.0000       0.0000       0.0000       0.0000       0.0000     
    230     (1,293)               1.39128E+05 -1.40061E+05  933.27       0.0000       0.0000       0.0000       0.0000       0.0000       0.0000       0.0000       0.0000     
    231     (1,290)               1.40061E+05 -1.40966E+05  904.60       0.0000       0.0000       0.0000       0.0000       0.0000       0.0000       0.0000       0.0000     
    232     (1,289)               1.40966E+05 -1.42009E+05  1043.1       0.0000       0.0000       0.0000       0.0000       0.0000       0.0000       0.0000       0.0000     
    233     (1,286)               1.42009E+05 -1.42193E+05  184.37       0.0000       0.0000       0.0000       0.0000       0.0000       0.0000       0.0000       0.0000     
    234     (1,250)               1.42193E+05 -1.43026E+05  832.45       0.0000       0.0000       0.0000       0.0000       0.0000       0.0000       0.0000       0.0000     
    235     (1,249)               1.43026E+05 -1.44037E+05  1011.1       0.0000       0.0000       0.0000       0.0000       0.0000       0.0000       0.0000       0.0000     
    236     (1,246)               1.44037E+05 -1.44636E+05  599.46       0.0000       0.0000       0.0000       0.0000       0.0000       0.0000       0.0000       0.0000     
    237     (1,244)               1.44636E+05 -1.45382E+05  745.98       0.0000       0.0000       0.0000       0.0000       0.0000       0.0000       0.0000       0.0000     
    238     (1,243)               1.45382E+05 -1.46492E+05  1109.2       0.0000       0.0000       0.0000       0.0000       0.0000       0.0000       0.0000       0.0000     
    239     (1,209)               1.46492E+05 -1.47024E+05  532.14       0.0000       0.0000       0.0000       0.0000       0.0000       0.0000       0.0000       0.0000     
    240     (1,206)               1.47024E+05 -1.48080E+05  1056.3       0.0000       0.0000       0.0000       0.0000       0.0000       0.0000       0.0000       0.0000     
    241     (1,204)               1.48080E+05 -1.48584E+05  503.61       0.0000       0.0000       0.0000       0.0000       0.0000       0.0000       0.0000       0.0000     
    242     (1,203)               1.48584E+05 -1.49590E+05  1006.4       0.0000       0.0000       0.0000       0.0000       0.0000       0.0000       0.0000       0.0000     
    243     (1,171)               1.49590E+05 -1.50077E+05  487.07       0.0000       0.0000       0.0000       0.0000       0.0000       0.0000       0.0000       0.0000     
    244     (1,168)               1.50077E+05 -1.51227E+05  1150.1       0.0000       0.0000       0.0000       0.0000       0.0000       0.0000       0.0000       0.0000     
    245     (1,166)               1.51227E+05 -1.51305E+05  77.966       0.0000       0.0000       0.0000       0.0000       0.0000       0.0000       0.0000       0.0000     
    246     (1,165)               1.51305E+05 -1.52558E+05  1252.9       0.0000       0.0000       0.0000       0.0000       0.0000       0.0000       0.0000       0.0000     
    247     (1,135)               1.52558E+05 -1.52635E+05  76.598       0.0000       0.0000       0.0000       0.0000       0.0000       0.0000       0.0000       0.0000     
    248     (1,132)               1.52635E+05 -1.53842E+05  1206.8       0.0000       0.0000       0.0000       0.0000       0.0000       0.0000       0.0000       0.0000     
    249     (1,130)               1.53842E+05 -1.53916E+05  74.565       0.0000       0.0000       0.0000       0.0000       0.0000       0.0000       0.0000       0.0000     
    250     (1,129)               1.53916E+05 -1.55093E+05  1176.6       0.0000       0.0000       0.0000       0.0000       0.0000       0.0000       0.0000       0.0000     
    251     (1,101)               1.55093E+05 -1.55165E+05  72.184       0.0000       0.0000       0.0000       0.0000       0.0000       0.0000       0.0000       0.0000     
    252     (1,98)                1.55165E+05 -1.56312E+05  1146.7       0.0000       0.0000       0.0000       0.0000       0.0000       0.0000       0.0000       0.0000     
    253     (1,96)                1.56312E+05 -1.56381E+05  69.725       0.0000       0.0000       0.0000       0.0000       0.0000       0.0000       0.0000       0.0000     
    254     (1,95)                1.56381E+05 -1.57494E+05  1112.2       0.0000       0.0000       0.0000       0.0000       0.0000       0.0000       0.0000       0.0000     
    255     (1,69)                1.57494E+05 -1.57561E+05  66.944       0.0000       0.0000       0.0000       0.0000       0.0000       0.0000       0.0000       0.0000     
    256     (1,66)                1.57561E+05 -1.58650E+05  1089.3       0.0000       0.0000       0.0000       0.0000       0.0000       0.0000       0.0000       0.0000     
    257     (1,65)                1.58650E+05 -1.58722E+05  72.390       0.0000       0.0000       0.0000       0.0000       0.0000       0.0000       0.0000       0.0000     
    258     (1,63)                1.58722E+05 -1.59644E+05  921.78       0.0000       0.0000       0.0000       0.0000       0.0000       0.0000       0.0000       0.0000     
    259     (1,60)                1.59644E+05 -1.60029E+05  385.22       0.0000       0.0000       0.0000       0.0000       0.0000       0.0000       0.0000       0.0000     
    260     (1,36)                1.60029E+05 -1.60891E+05  861.98       0.0000       0.0000       0.0000       0.0000       0.0000       0.0000       0.0000       0.0000     
    261     (1,35)                1.60891E+05 -1.61369E+05  478.13       0.0000       0.0000       0.0000       0.0000       0.0000       0.0000       0.0000       0.0000     
    262     (1,33)                1.61369E+05 -1.62036E+05  667.03       0.0000       0.0000       0.0000       0.0000       0.0000       0.0000       0.0000       0.0000     
    263     (1,30)                1.62036E+05 -1.62829E+05  792.31       0.0000       0.0000       0.0000       0.0000       0.0000       0.0000       0.0000       0.0000     
    264     (1,8)                 1.62829E+05 -1.63456E+05  626.94       0.0000       0.0000       0.0000       0.0000       0.0000       0.0000       0.0000       0.0000     
    265     (1,7)                 1.63456E+05 -1.64350E+05  894.55       0.0000       0.0000       0.0000       0.0000       0.0000       0.0000       0.0000       0.0000     
    266     (1,5)                 1.64350E+05  0.0000       108.42       0.0000       0.0000       0.0000       0.0000      -1.64459E+05  0.0000       0.0000       0.0000     
 ------------------------------------------------------------------------------------------------------------------------------------------------------------------------------




  SFR BUDGET FOR ENTIRE MODEL AT END OF TIME STEP   48, STRESS PERIOD   2
  ------------------------------------------------------------------------------

     CUMULATIVE SFR      L**3       RATES FOR THIS TIME STEP      L**3/T
     ------------------                 ------------------------

           IN:                                      IN:
           ---                                      ---
                 GWF =   240274007.7079                   GWF =      164458.5952
            RAINFALL =           0.0000              RAINFALL =           0.0000
         EVAPORATION =           0.0000           EVAPORATION =           0.0000
              RUNOFF =           0.0000                RUNOFF =           0.0000
          EXT-INFLOW =           0.0000            EXT-INFLOW =           0.0000
         EXT-OUTFLOW =           0.0000           EXT-OUTFLOW =           0.0000
             STORAGE =           0.0000               STORAGE =           0.0000

            TOTAL IN =   240274007.7079              TOTAL IN =      164458.5952

          OUT:                                     OUT:
          ----                                     ----
                 GWF =           0.0000                   GWF =           0.0000
            RAINFALL =           0.0000              RAINFALL =           0.0000
         EVAPORATION =           0.0000           EVAPORATION =           0.0000
              RUNOFF =           0.0000                RUNOFF =           0.0000
          EXT-INFLOW =           0.0000            EXT-INFLOW =           0.0000
         EXT-OUTFLOW =   240274007.7079           EXT-OUTFLOW =      164458.5952
             STORAGE =           0.0000               STORAGE =           0.0000

           TOTAL OUT =   240274007.7079             TOTAL OUT =      164458.5952

            IN - OUT =           0.0000              IN - OUT =           0.0000

 PERCENT DISCREPANCY =           0.00     PERCENT DISCREPANCY =           0.00



  VOLUME BUDGET FOR ENTIRE MODEL AT END OF TIME STEP   48, STRESS PERIOD   2
  ---------------------------------------------------------------------------------------------------

     CUMULATIVE VOLUME      L**3       RATES FOR THIS TIME STEP      L**3/T          PACKAGE NAME    
     ------------------                 ------------------------                     ----------------

           IN:                                      IN:
           ---                                      ---
              STO-SS =       2.4618E-05                STO-SS =       1.8549E-13     STORAGE         
              STO-SY =       2.1830E-02                STO-SY =       1.6678E-10     STORAGE         
                 GHB =           0.0000                   GHB =           0.0000     GHB             
                 RCH =   315940875.4761                   RCH =      216249.7437     RCH             
                 SFR =           0.0000                   SFR =           0.0000     SFR             

            TOTAL IN =   315940875.4979              TOTAL IN =      216249.7437

          OUT:                                     OUT:
          ----                                     ----
              STO-SS =       4.0503E-09                STO-SS =       1.3473E-16     STORAGE         
              STO-SY =       4.8271E-06                STO-SY =       1.7708E-13     STORAGE         
                 GHB =    75666868.0034                   GHB =       51791.1485     GHB             
                 RCH =           0.0000                   RCH =           0.0000     RCH             
                 SFR =   240274007.6603                   SFR =      164458.5952     SFR             

           TOTAL OUT =   315940875.6637             TOTAL OUT =      216249.7437

            IN - OUT =           0.1657              IN - OUT =       6.4570E-07

 PERCENT DISCREPANCY =          -0.00     PERCENT DISCREPANCY =          -0.00




         TIME SUMMARY AT END OF TIME STEP   48 IN STRESS PERIOD    2
                    SECONDS     MINUTES      HOURS       DAYS        YEARS
                    -----------------------------------------------------------
   TIME STEP LENGTH 2.62800E+06  43800.      730.00      30.417     8.32763E-02
 STRESS PERIOD TIME 1.26144E+08 2.10240E+06  35040.      1460.0      3.9973    
         TOTAL TIME 1.26230E+08 2.10384E+06  35064.      1461.0      4.0000    


end timestep

