                                   MODFLOW 6
                U.S. GEOLOGICAL SURVEY MODULAR HYDROLOGIC MODEL
                          GROUNDWATER FLOW MODEL (GWF)
                            VERSION 6.2.1 02/18/2021

   MODFLOW 6 compiled Feb 18 2021 21:14:51 with IFORT compiler (ver. 19.10.3)

This software has been approved for release by the U.S. Geological 
Survey (USGS). Although the software has been subjected to rigorous 
review, the USGS reserves the right to update the software as needed 
pursuant to further analysis and review. No warranty, expressed or 
implied, is made by the USGS or the U.S. Government as to the 
functionality of the software and related material nor shall the 
fact of release constitute any such warranty. Furthermore, the 
software is released on condition that neither the USGS nor the U.S. 
Government shall be held liable for any damages resulting from its 
authorized or unauthorized use. Also refer to the USGS Water 
Resources Software User Rights Notice for complete use, copyright, 
and distribution information.


System command used to initiate simulation:
..\bins\win\mf6

MODFLOW was compiled using uniform precision.

Real Variables
  KIND: 8
  TINY (smallest non-zero value):    2.225074-308
  HUGE (largest value):    1.797693+308
  PRECISION: 15
  BIT SIZE: 64

Integer Variables
  KIND: 4
  HUGE (largest value): 2147483647
  BIT SIZE: 32

Long Integer Variables
  KIND: 8
  HUGE (largest value): 9223372036854775807
  BIT SIZE: 64

Logical Variables
  KIND: 4
  BIT SIZE: 32
 

 OPENED .\experimental.disv
 FILE TYPE:DISV6                  UNIT 1005   STATUS:OLD                 
 FORMAT:FORMATTED              ACCESS:SEQUENTIAL          
 ACTION:READ                


 OPENED .\experimental.ic
 FILE TYPE:IC6                    UNIT 1006   STATUS:OLD                 
 FORMAT:FORMATTED              ACCESS:SEQUENTIAL          
 ACTION:READ                


 OPENED .\experimental.npf
 FILE TYPE:NPF6                   UNIT 1007   STATUS:OLD                 
 FORMAT:FORMATTED              ACCESS:SEQUENTIAL          
 ACTION:READ                


 OPENED .\experimental.oc
 FILE TYPE:OC6                    UNIT 1008   STATUS:OLD                 
 FORMAT:FORMATTED              ACCESS:SEQUENTIAL          
 ACTION:READ                


 OPENED .\experimental.sto
 FILE TYPE:STO6                   UNIT 1009   STATUS:OLD                 
 FORMAT:FORMATTED              ACCESS:SEQUENTIAL          
 ACTION:READ                


 OPENED .\experimental.ghb
 FILE TYPE:GHB6                   UNIT 1010   STATUS:OLD                 
 FORMAT:FORMATTED              ACCESS:SEQUENTIAL          
 ACTION:READ                


 OPENED .\experimental.rch
 FILE TYPE:RCH6                   UNIT 1011   STATUS:OLD                 
 FORMAT:FORMATTED              ACCESS:SEQUENTIAL          
 ACTION:READ                


 OPENED .\experimental.sfr
 FILE TYPE:SFR6                   UNIT 1012   STATUS:OLD                 
 FORMAT:FORMATTED              ACCESS:SEQUENTIAL          
 ACTION:READ                


 OPENED .\experimental.obs
 FILE TYPE:OBS6                   UNIT 1013   STATUS:OLD                 
 FORMAT:FORMATTED              ACCESS:SEQUENTIAL          
 ACTION:READ                

 NAMEFILE OPTIONS:
    FLOWS WILL BE SAVED TO BUDGET FILE SPECIFIED IN OUTPUT CONTROL

 DISV -- VERTEX GRID DISCRETIZATION PACKAGE, VERSION 1 : 12/23/2015 - INPUT READ FROM UNIT 1005


 # File generated by Flopy version 3.3.5 on 11/03/2021 at 09:22:53.

 PROCESSING DISCRETIZATION OPTIONS
    MODEL LENGTH UNIT IS METERS
 END OF DISCRETIZATION OPTIONS

 PROCESSING DISCRETIZATION DIMENSIONS
   NLAY = 3
   NCPL = 3135
   NVERT = 3386
 END OF DISCRETIZATION DIMENSIONS

 PROCESSING GRIDDATA
 END PROCESSING GRIDDATA

 PROCESSING VERTICES
   SUCCESSFULLY READ 3386 (X,Y) COORDINATES
   MINIMUM X COORDINATE =     426888.873000000    
   MAXIMUM X COORDINATE =     427652.548000000    
   MINIMUM Y COORDINATE =     6654697.49000000    
   MAXIMUM Y COORDINATE =     6655291.46000000    
 END PROCESSING VERTICES

 PROCESSING CELL2D
   SUCCESSFULLY READ 3135 CELL2D INFORMATION ENTRIES
   MINIMUM X CELL CENTER =     426895.944000000    
   MAXIMUM X CELL CENTER =     427645.477000000    
   MINIMUM Y CELL CENTER =     6654704.56000000    
   MAXIMUM Y CELL CENTER =     6655284.39000000    
   MAXIMUM NUMBER OF CELL2D VERTICES IS 8 FOR CELL 1815
 END PROCESSING VERTICES

 NPF -- NODE PROPERTY FLOW PACKAGE, VERSION 1, 3/30/2015 INPUT READ FROM UNIT 1007


 # File generated by Flopy version 3.3.5 on 11/03/2021 at 09:22:54.
 PROCESSING NPF OPTIONS
    CELL-BY-CELL FLOW INFORMATION WILL BE SAVED TO BINARY FILE WHENEVER ICBCFL IS NOT ZERO.
 END OF NPF OPTIONS

 GHB   -- GHB PACKAGE, VERSION 8, 2/22/2014 INPUT READ FROM UNIT 1010
 # File generated by Flopy version 3.3.5 on 11/03/2021 at 09:22:54.

 PROCESSING GHB OPTIONS
    GHB BOUNDARIES HAVE NAMES IN LAST COLUMN.
    LISTS OF GHB CELLS WILL BE PRINTED.
    GHB FLOWS WILL BE PRINTED TO LISTING FILE.
    FLOWS WILL BE SAVED TO BUDGET FILE SPECIFIED IN OUTPUT CONTROL
 END OF GHB OPTIONS

 PROCESSING GHB DIMENSIONS
    MAXBOUND =     180
 END OF GHB DIMENSIONS

 RCH   -- RCH PACKAGE, VERSION 8, 2/22/2014 INPUT READ FROM UNIT 1011
 # File generated by Flopy version 3.3.5 on 11/03/2021 at 09:22:54.

 PROCESSING RCH OPTIONS
    RECHARGE WILL BE APPLIED TO SPECIFIED CELL.
    LISTS OF RCH CELLS WILL BE PRINTED.
    RCH FLOWS WILL BE PRINTED TO LISTING FILE.
    FLOWS WILL BE SAVED TO BUDGET FILE SPECIFIED IN OUTPUT CONTROL
    TIME-SERIES DATA WILL BE READ FROM FILE: rch.ts
 END OF RCH OPTIONS

 PROCESSING RCH DIMENSIONS
    MAXBOUND =    2955
 END OF RCH DIMENSIONS

 SFR   -- SFR PACKAGE, VERSION 8, 2/22/2014 INPUT READ FROM UNIT 1012
 # File generated by Flopy version 3.3.5 on 11/03/2021 at 09:22:55.

 PROCESSING SFR OPTIONS
    SFR STAGES WILL BE PRINTED TO LISTING FILE.
    SFR FLOWS WILL BE PRINTED TO LISTING FILE.
    FLOWS WILL BE SAVED TO BUDGET FILE SPECIFIED IN OUTPUT CONTROL

 OPENED experimental.sfr.bud
 FILE TYPE:DATA(BINARY)   UNIT 1016   STATUS:REPLACE             
 FORMAT:UNFORMATTED            ACCESS:STREAM              
 ACTION:READWRITE           

    SFR  BUDGET  WILL BE SAVED TO FILE: experimental.sfr.bud                                                                                                                                                                                                                                                                                                                                                                                                                                                                                                                                                                                                                                                                                                                                                                                                                                                                                                                                                                                                                                                                                                                                                                                                                                                                                                                                                                                                                                                                                                                                                                                                                                                                                                                                                                                                                                                                                                                                                                                                                                                                                                                                                                                                                                                                                                                                                                                                                                                                                                                                                                                                                                                                                                                                                                                                                                                                                                                                                                                                                                                                                                                                                                                                                                                                                                                                                                                                                                                                                                                                                                                                                                                                                                                                                                                                                                                                                                                                                                                                                                                                                                                                                                                                                                                                                                                                                                                                                                                                                                                                                                                                                                                                                                                                                                                                                                                                                                                                                                                                                                                                                                                                                                                    
    OPENED ON UNIT:    1016

 OPENED experimental.sfr.obs
 FILE TYPE:OBS   UNIT 1017   STATUS:OLD                 
 FORMAT:FORMATTED              ACCESS:SEQUENTIAL          
 ACTION:READ                

    MAXIMUM SFR ITERATION VALUE (100) SPECIFIED.
    UNIT CONVERSION VALUE (86400.00000000000) SPECIFIED.
 END OF SFR OPTIONS

 PROCESSING SFR DIMENSIONS
    NREACHES = 266
 END OF SFR DIMENSIONS

 PROCESSING SFR PACKAGEDATA
 END OF SFR PACKAGEDATA

 PROCESSING SFR CONNECTIONDATA
 END OF SFR CONNECTIONDATA

 IC -- INITIAL CONDITIONS PACKAGE, VERSION 8, 3/28/2015 INPUT READ FROM UNIT 1006
 # File generated by Flopy version 3.3.5 on 11/03/2021 at 09:22:54.
 PROCESSING GRIDDATA

     INITIAL HEAD =   138.0000    
 END PROCESSING GRIDDATA
 PROCESSING GRIDDATA

                ICELLTYPE = 1 FOR LAYER 1

                ICELLTYPE = 0 FOR LAYER 2

                ICELLTYPE = 0 FOR LAYER 3

                        K =   86.40000     FOR LAYER 1

                        K =   86.40000     FOR LAYER 2

                        K =   43.20000     FOR LAYER 3

                      K33 =   8.640000     FOR LAYER 1

                      K33 =   8.640000     FOR LAYER 2

                      K33 =  0.1000000     FOR LAYER 3
 K22 not provided.  Assuming K22 = K.
 END PROCESSING GRIDDATA

 CELL CONVERSIONS FOR ITER.=0  STEP=0  PERIOD=0   (NODE or LRC)
     DRY             (1,340) DRY             (1,341) DRY             (1,342) DRY             (1,343) DRY             (1,344)
     DRY             (1,345) DRY             (1,346) DRY             (1,347) DRY             (1,416) DRY             (1,417)
     DRY             (1,418) DRY             (1,419) DRY             (1,420) DRY             (1,421) DRY             (1,422)
     DRY             (1,423) DRY             (1,424) DRY             (1,425) DRY             (1,426) DRY             (1,427)
     DRY             (1,428) DRY             (1,491) DRY             (1,492) DRY             (1,493) DRY             (1,494)
     DRY             (1,495) DRY             (1,496) DRY             (1,497) DRY             (1,498) DRY             (1,499)
     DRY             (1,500) DRY             (1,501) DRY             (1,502) DRY             (1,503) DRY             (1,504)
     DRY             (1,570) DRY             (1,571) DRY             (1,572) DRY             (1,573) DRY             (1,574)
     DRY             (1,575) DRY             (1,576) DRY             (1,577) DRY             (1,578) DRY             (1,579)
     DRY             (1,580) DRY             (1,581) DRY             (1,582) DRY             (1,583) DRY             (1,584)
     DRY             (1,651) DRY             (1,652) DRY             (1,653) DRY             (1,654) DRY             (1,655)
     DRY             (1,656) DRY             (1,657) DRY             (1,658) DRY             (1,660) DRY             (1,661)
     DRY             (1,662) DRY             (1,663) DRY             (1,664) DRY             (1,665) DRY             (1,732)
     DRY             (1,733) DRY             (1,735) DRY             (1,736) DRY             (1,737) DRY             (1,739)
     DRY             (1,742) DRY             (1,743) DRY             (1,744) DRY             (1,745) DRY             (1,746)
     DRY             (1,747) DRY             (1,814) DRY             (1,815) DRY             (1,816) DRY             (1,817)
     DRY             (1,818) DRY             (1,819) DRY             (1,820) DRY             (1,824) DRY             (1,825)
     DRY             (1,826) DRY             (1,827) DRY             (1,828) DRY             (1,829) DRY             (1,830)
     DRY             (1,897) DRY             (1,898) DRY             (1,899) DRY             (1,900) DRY             (1,901)
     DRY             (1,907) DRY             (1,908) DRY             (1,909) DRY             (1,910) DRY             (1,911)
     DRY             (1,912) DRY             (1,913) DRY             (1,990) DRY             (1,991) DRY             (1,992)
     DRY             (1,993) DRY             (1,994) DRY             (1,995) DRY             (1,996) DRY            (1,1070)
     DRY            (1,1071) DRY            (1,1072) DRY            (1,1073) DRY            (1,1074) DRY            (1,1075)
     DRY            (1,1076) DRY            (1,1149) DRY            (1,1150) DRY            (1,1151) DRY            (1,1152)
     DRY            (1,1153) DRY            (1,1154) DRY            (1,1155) DRY            (1,1156) DRY            (1,1233)
     DRY            (1,1234) DRY            (1,1235) DRY            (1,1236) DRY            (1,1237) DRY            (1,1238)
     DRY            (1,1239) DRY            (1,1313) DRY            (1,1314) DRY            (1,1315) DRY            (1,1316)
     DRY            (1,1317) DRY            (1,1318) DRY            (1,1319) DRY            (1,1392) DRY            (1,1393)
     DRY            (1,1394) DRY            (1,1395) DRY            (1,1396) DRY            (1,1397) DRY            (1,1398)
     DRY            (1,1479) DRY            (1,1480) DRY            (1,1481) DRY            (1,1482) DRY            (1,1483)
     DRY            (1,1484) DRY            (1,1485) DRY            (1,1572) DRY            (1,1573) DRY            (1,1574)
     DRY            (1,1575) DRY            (1,1576) DRY            (1,1577) DRY            (1,1578) DRY            (1,1579)
     DRY            (1,1580) DRY            (1,1684) DRY            (1,1685) DRY            (1,1686) DRY            (1,1687)
     DRY            (1,1688) DRY            (1,1689) DRY            (1,1690) DRY            (1,1691) DRY            (1,1692)
     DRY            (1,1768) DRY            (1,1769) DRY            (1,1770) DRY            (1,1771) DRY            (1,1772)
     DRY            (1,1773) DRY            (1,1774) DRY            (1,1775) DRY            (1,1776) DRY            (1,1845)
     DRY            (1,1846) DRY            (1,1847) DRY            (1,1848) DRY            (1,1849) DRY            (1,1850)
     DRY            (1,1851) DRY            (1,1852) DRY            (1,1853) DRY            (1,1921) DRY            (1,1922)
     DRY            (1,1923) DRY            (1,1924) DRY            (1,1925) DRY            (1,1926) DRY            (1,1927)
     DRY            (1,1928) DRY            (1,1929) DRY            (1,1997) DRY            (1,1998) DRY            (1,1999)
     DRY            (1,2000) DRY            (1,2001) DRY            (1,2002) DRY            (1,2003) DRY            (1,2004)
     DRY            (1,2068) DRY            (1,2069) DRY            (1,2070) DRY            (1,2071) DRY            (1,2072)
     DRY            (1,2073) DRY            (1,2074) DRY            (1,2075) DRY            (1,2138) DRY            (1,2139)
     DRY            (1,2140) DRY            (1,2141) DRY            (1,2142) DRY            (1,2143) DRY            (1,2144)
     DRY            (1,2145) DRY            (1,2207) DRY            (1,2208) DRY            (1,2209) DRY            (1,2210)
     DRY            (1,2211) DRY            (1,2212) DRY            (1,2213) DRY            (1,2214) DRY            (1,2286)
     DRY            (1,2287) DRY            (1,2288) DRY            (1,2289) DRY            (1,2290) DRY            (1,2291)
     DRY            (1,2292) DRY            (1,2293) DRY            (1,2294) DRY            (1,2295) DRY            (1,2296)
     DRY            (1,2297) DRY            (1,2298) DRY            (1,2299) DRY            (1,2300) DRY            (1,2301)
     DRY            (1,2302) DRY            (1,2303) DRY            (1,2304) DRY            (1,2305) DRY            (1,2306)
     DRY            (1,2307) DRY            (1,2308) DRY            (1,2309) DRY            (1,2382) DRY            (1,2383)
     DRY            (1,2384) DRY            (1,2385) DRY            (1,2386) DRY            (1,2387) DRY            (1,2388)
     DRY            (1,2389) DRY            (1,2390) DRY            (1,2391) DRY            (1,2392) DRY            (1,2393)
     DRY            (1,2394) DRY            (1,2395) DRY            (1,2396) DRY            (1,2397) DRY            (1,2398)
     DRY            (1,2399) DRY            (1,2400) DRY            (1,2401) DRY            (1,2402) DRY            (1,2403)
     DRY            (1,2472) DRY            (1,2473) DRY            (1,2474) DRY            (1,2475) DRY            (1,2476)
     DRY            (1,2477) DRY            (1,2478) DRY            (1,2479) DRY            (1,2480) DRY            (1,2481)
     DRY            (1,2482) DRY            (1,2483) DRY            (1,2484) DRY            (1,2485) DRY            (1,2486)
     DRY            (1,2487) DRY            (1,2548) DRY            (1,2549) DRY            (1,2550) DRY            (1,2551)
     DRY            (1,2552) DRY            (1,2553) DRY            (1,2554) DRY            (1,2555) DRY            (1,2556)
     DRY            (1,2557) DRY            (1,2558) DRY            (1,2559) DRY            (1,2560) DRY            (1,2561)
     DRY            (1,2562) DRY            (1,2563) DRY            (1,2564) DRY            (1,2565) DRY            (1,2624)
     DRY            (1,2625) DRY            (1,2626) DRY            (1,2627) DRY            (1,2628) DRY            (1,2629)
     DRY            (1,2630) DRY            (1,2631) DRY            (1,2632) DRY            (1,2633) DRY            (1,2634)
     DRY            (1,2635) DRY            (1,2692) DRY            (1,2693) DRY            (1,2694) DRY            (1,2695)
     DRY            (1,2696) DRY            (1,2697) DRY            (1,2698) DRY            (1,2699) DRY            (1,2700)
     DRY            (1,2701) DRY            (1,2702) DRY            (1,2703) DRY            (1,2704) DRY            (1,2771)
     DRY            (1,2772) DRY            (1,2773) DRY            (1,2774) DRY            (1,2775) DRY            (1,2776)
     DRY            (1,2777) DRY            (1,2778) DRY            (1,2779) DRY            (1,2780) DRY            (1,2781)
     DRY            (1,2782) DRY            (1,2783) DRY            (1,2784) DRY            (1,2843) DRY            (1,2844)
     DRY            (1,2845) DRY            (1,2846) DRY            (1,2847) DRY            (1,2848) DRY            (1,2849)
     DRY            (1,2850) DRY            (1,2851) DRY            (1,2852) DRY            (1,2853) DRY            (1,2854)
     DRY            (1,2855) DRY            (1,2872) DRY            (1,2908) DRY            (1,2909) DRY            (1,2910)
     DRY            (1,2911) DRY            (1,2912) DRY            (1,2913) DRY            (1,2914) DRY            (1,2915)
     DRY            (1,2916) DRY            (1,2917) DRY            (1,2918) DRY            (1,2919) DRY            (1,2920)
     DRY            (1,2933) DRY            (1,2934) DRY            (1,2935) DRY            (1,2936) DRY            (1,2937)
     DRY            (1,2938) DRY            (1,2939) DRY            (1,2940) DRY            (1,2960) DRY            (1,2961)
     DRY            (1,2962) DRY            (1,2963) DRY            (1,2964) DRY            (1,2965) DRY            (1,2966)
     DRY            (1,2967) DRY            (1,2968) DRY            (1,2969) DRY            (1,2970) DRY            (1,2980)
     DRY            (1,2981) DRY            (1,2982) DRY            (1,2983) DRY            (1,2984) DRY            (1,2985)
     DRY            (1,2986) DRY            (1,2987) DRY            (1,2988) DRY            (1,2989) DRY            (1,2990)
     DRY            (1,2991) DRY            (1,3006) DRY            (1,3007) DRY            (1,3008) DRY            (1,3009)
     DRY            (1,3010) DRY            (1,3011) DRY            (1,3012) DRY            (1,3013) DRY            (1,3014)
     DRY            (1,3015) DRY            (1,3016) DRY            (1,3017) DRY            (1,3025) DRY            (1,3026)
     DRY            (1,3027) DRY            (1,3028) DRY            (1,3029) DRY            (1,3030) DRY            (1,3031)
     DRY            (1,3032) DRY            (1,3033) DRY            (1,3034) DRY            (1,3035) DRY            (1,3036)
     DRY            (1,3037) DRY            (1,3038) DRY            (1,3039) DRY            (1,3040) DRY            (1,3041)
     DRY            (1,3042) DRY            (1,3043) DRY            (1,3044) DRY            (1,3045) DRY            (1,3046)
     DRY            (1,3047) DRY            (1,3048) DRY            (1,3049) DRY            (1,3050) DRY            (1,3051)
     DRY            (1,3052) DRY            (1,3053) DRY            (1,3054) DRY            (1,3055) DRY            (1,3056)
     DRY            (1,3057) DRY            (1,3058) DRY            (1,3059) DRY            (1,3060) DRY            (1,3067)
     DRY            (1,3068) DRY            (1,3069) DRY            (1,3070) DRY            (1,3071) DRY            (1,3072)
     DRY            (1,3073) DRY            (1,3074) DRY            (1,3075) DRY            (1,3076) DRY            (1,3077)
     DRY            (1,3078) DRY            (1,3079) DRY            (1,3080) DRY            (1,3081) DRY            (1,3082)
     DRY            (1,3083) DRY            (1,3084) DRY            (1,3085) DRY            (1,3086) DRY            (1,3087)
     DRY            (1,3088) DRY            (1,3089) DRY            (1,3090) DRY            (1,3091) DRY            (1,3092)
     DRY            (1,3093) DRY            (1,3094) DRY            (1,3095) DRY            (1,3096) DRY            (1,3101)
     DRY            (1,3102) DRY            (1,3103) DRY            (1,3104) DRY            (1,3105) DRY            (1,3106)
     DRY            (1,3107) DRY            (1,3108) DRY            (1,3109) DRY            (1,3110) DRY            (1,3111)
     DRY            (1,3112) DRY            (1,3116) DRY            (1,3117) DRY            (1,3118) DRY            (1,3119)
     DRY            (1,3120) DRY            (1,3121) DRY            (1,3122) DRY            (1,3123) DRY            (1,3124)
     DRY            (1,3125) DRY            (1,3128) DRY            (1,3129) DRY            (1,3130) DRY            (1,3131)
     DRY            (1,3132) DRY            (1,3133) DRY            (1,3134) DRY            (1,3135)

 STO -- STORAGE PACKAGE, VERSION 1, 5/19/2014 INPUT READ FROM UNIT 1009


 # File generated by Flopy version 3.3.5 on 11/03/2021 at 09:22:54.
 PROCESSING STORAGE OPTIONS
    CELL-BY-CELL FLOW INFORMATION WILL BE SAVED TO BINARY FILE WHENEVER ICBCFL IS NOT ZERO.
 END OF STORAGE OPTIONS
 PROCESSING GRIDDATA

                 ICONVERT = 1

         SPECIFIC STORAGE FOR LAYER 1
       1.000E-06  1.000E-06  1.000E-06  1.000E-06  1.000E-06  1.000E-06  1.000E-06  1.000E-06  1.000E-06  1.000E-06  1.000E-06
       1.000E-06  1.000E-06  1.000E-06  1.000E-06  1.000E-06  1.000E-06  1.000E-06  1.000E-06  1.000E-06  1.000E-06  1.000E-06
       1.000E-06  1.000E-06  1.000E-06  1.000E-06  1.000E-06  1.000E-06  1.000E-06  1.000E-06  1.000E-06  1.000E-06  1.000E-06
       1.000E-06  1.000E-06  1.000E-06  1.000E-06  1.000E-06  1.000E-06  1.000E-06  1.000E-06  1.000E-06  1.000E-06  1.000E-06
       1.000E-06  1.000E-06  1.000E-06  1.000E-06  1.000E-06  1.000E-06  1.000E-06  1.000E-06  1.000E-06  1.000E-06  1.000E-06
       1.000E-06  1.000E-06  1.000E-06  1.000E-06  1.000E-06  1.000E-06  1.000E-06  1.000E-06  1.000E-06  1.000E-06  1.000E-06
       1.000E-06  1.000E-06  1.000E-06  1.000E-06  1.000E-06  1.000E-06  1.000E-06  1.000E-06  1.000E-06  1.000E-06  1.000E-06
       1.000E-06  1.000E-06  1.000E-06  1.000E-06  1.000E-06  1.000E-06  1.000E-06  1.000E-06  1.000E-06  1.000E-06  1.000E-06
       1.000E-06  1.000E-06  1.000E-06  1.000E-06  1.000E-06  1.000E-06  1.000E-06  1.000E-06  1.000E-06  1.000E-06  1.000E-06
       1.000E-06  1.000E-06  1.000E-06  1.000E-06  1.000E-06  1.000E-06  1.000E-06  1.000E-06  1.000E-06  1.000E-06  1.000E-06
       1.000E-06  1.000E-06  1.000E-06  1.000E-06  1.000E-06  1.000E-06  1.000E-06  1.000E-06  1.000E-06  1.000E-06  1.000E-06
       1.000E-06  1.000E-06  1.000E-06  1.000E-06  1.000E-06  1.000E-06  1.000E-06  1.000E-06  1.000E-06  1.000E-06  1.000E-06
       1.000E-06  1.000E-06  1.000E-06  1.000E-06  1.000E-06  1.000E-06  1.000E-06  1.000E-06  1.000E-06  1.000E-06  1.000E-06
       1.000E-06  1.000E-06  1.000E-06  1.000E-06  1.000E-06  1.000E-06  1.000E-06  1.000E-06  1.000E-06  1.000E-06  1.000E-06
       1.000E-06  1.000E-06  1.000E-06  1.000E-06  1.000E-06  1.000E-06  1.000E-06  1.000E-06  1.000E-06  1.000E-06  1.000E-06
       1.000E-06  1.000E-06  1.000E-06  1.000E-06  1.000E-06  1.000E-06  1.000E-06  1.000E-06  1.000E-06  1.000E-06  1.000E-06
       1.000E-06  1.000E-06  1.000E-06  1.000E-06  1.000E-06  1.000E-06  1.000E-06  1.000E-06  1.000E-06  1.000E-06  1.000E-06
       1.000E-06  1.000E-06  1.000E-06  1.000E-06  1.000E-06  1.000E-06  1.000E-06  1.000E-06  1.000E-06  1.000E-06  1.000E-06
       1.000E-06  1.000E-06  1.000E-06  1.000E-06  1.000E-06  1.000E-06  1.000E-06  1.000E-06  1.000E-06  1.000E-06  1.000E-06
       1.000E-06  1.000E-06  1.000E-06  1.000E-06  1.000E-06  1.000E-06  1.000E-06  1.000E-06  1.000E-06  1.000E-06  1.000E-06
       1.000E-06  1.000E-06  1.000E-06  1.000E-06  1.000E-06  1.000E-06  1.000E-06  1.000E-06  1.000E-06  1.000E-06  1.000E-06
       1.000E-06  1.000E-06  1.000E-06  1.000E-06  1.000E-06  1.000E-06  1.000E-06  1.000E-06  1.000E-06  1.000E-06  1.000E-06
       1.000E-06  1.000E-06  1.000E-06  1.000E-06  1.000E-06  1.000E-06  1.000E-06  1.000E-06  1.000E-06  1.000E-06  1.000E-06
       1.000E-06  1.000E-06  1.000E-06  1.000E-06  1.000E-06  1.000E-06  1.000E-06  1.000E-06  1.000E-06  1.000E-06  1.000E-06
       1.000E-06  1.000E-06  1.000E-06  1.000E-06  1.000E-06  1.000E-06  1.000E-06  1.000E-06  1.000E-06  1.000E-06  1.000E-06
       1.000E-06  1.000E-06  1.000E-06  1.000E-06  1.000E-06  1.000E-06  1.000E-06  1.000E-06  1.000E-06  1.000E-06  1.000E-06
       1.000E-06  1.000E-06  1.000E-06  1.000E-06  1.000E-06  1.000E-06  1.000E-06  1.000E-06  1.000E-06  1.000E-06  1.000E-06
       1.000E-06  1.000E-06  1.000E-06  1.000E-06  1.000E-06  1.000E-06  1.000E-06  1.000E-06  1.000E-06  1.000E-06  1.000E-06
       1.000E-06  1.000E-06  1.000E-06  1.000E-06  1.000E-06  1.000E-06  1.000E-06  1.000E-06  1.000E-06  1.000E-06  1.000E-06
       1.000E-06  1.000E-06  1.000E-06  1.000E-06  1.000E-06  1.000E-06  1.000E-06  1.000E-06  1.000E-06  1.000E-06  1.000E-06
       1.000E-06  1.000E-06  1.000E-06  1.000E-06  1.000E-06  1.000E-06  1.000E-06  1.000E-06  1.000E-06  1.000E-06  1.000E-06
       1.000E-06  1.000E-06  1.000E-06  1.000E-06  1.000E-06  1.000E-06  1.000E-06  1.000E-06  1.000E-06  1.000E-06  1.000E-06
       1.000E-06  1.000E-06  1.000E-06  1.000E-06  1.000E-06  1.000E-06  1.000E-06  1.000E-06  1.000E-06  1.000E-06  1.000E-06
       1.000E-06  1.000E-06  1.000E-06  1.000E-06  1.000E-06  1.000E-06  1.000E-06  1.000E-06  1.000E-06  1.000E-06  1.000E-06
       1.000E-06  1.000E-06  1.000E-06  1.000E-06  1.000E-06  1.000E-06  1.000E-06  1.000E-06  1.000E-06  1.000E-06  1.000E-06
       1.000E-06  1.000E-06  1.000E-06  1.000E-06  1.000E-06  1.000E-06  1.000E-06  1.000E-06  1.000E-06  1.000E-06  1.000E-06
       1.000E-06  1.000E-06  1.000E-06  1.000E-06  1.000E-06  1.000E-06  1.000E-06  1.000E-06  1.000E-06  1.000E-06  1.000E-06
       1.000E-06  1.000E-06  1.000E-06  1.000E-06  1.000E-06  1.000E-06  1.000E-06  1.000E-06  1.000E-06  1.000E-06  1.000E-06
       1.000E-06  1.000E-06  1.000E-06  1.000E-06  1.000E-06  1.000E-06  1.000E-06  1.000E-06  1.000E-06  1.000E-06  1.000E-06
       1.000E-06  1.000E-06  1.000E-06  1.000E-06  1.000E-06  1.000E-06  1.000E-06  1.000E-06  1.000E-06  1.000E-06  1.000E-06
       1.000E-06  1.000E-06  1.000E-06  1.000E-06  1.000E-06  1.000E-06  1.000E-06  1.000E-06  1.000E-06  1.000E-06  1.000E-06
       1.000E-06  1.000E-06  1.000E-06  1.000E-06  1.000E-06  1.000E-06  1.000E-06  1.000E-06  1.000E-06  1.000E-06  1.000E-06
       1.000E-06  1.000E-06  1.000E-06  1.000E-06  1.000E-06  1.000E-06  1.000E-06  1.000E-06  1.000E-06  1.000E-06  1.000E-06
       1.000E-06  1.000E-06  1.000E-06  1.000E-06  1.000E-06  1.000E-06  1.000E-06  1.000E-06  1.000E-06  1.000E-06  1.000E-06
       1.000E-06  1.000E-06  1.000E-06  1.000E-06  1.000E-06  1.000E-06  1.000E-06  1.000E-06  1.000E-06  1.000E-06  1.000E-06
       1.000E-06  1.000E-06  1.000E-06  1.000E-06  1.000E-06  1.000E-06  1.000E-06  1.000E-06  1.000E-06  1.000E-06  1.000E-06
       1.000E-06  1.000E-06  1.000E-06  1.000E-06  1.000E-06  1.000E-06  1.000E-06  1.000E-06  1.000E-06  1.000E-06  1.000E-06
       1.000E-06  1.000E-06  1.000E-06  1.000E-06  1.000E-06  1.000E-06  1.000E-06  1.000E-06  1.000E-06  1.000E-06  1.000E-06
       1.000E-06  1.000E-06  1.000E-06  1.000E-06  1.000E-06  1.000E-06  1.000E-06  1.000E-06  1.000E-06  1.000E-06  1.000E-06
       1.000E-06  1.000E-06  1.000E-06  1.000E-06  1.000E-06  1.000E-06  1.000E-06  1.000E-06  1.000E-06  1.000E-06  1.000E-06
       1.000E-06  1.000E-06  1.000E-06  1.000E-06  1.000E-06  1.000E-06  1.000E-06  1.000E-06  1.000E-06  1.000E-06  1.000E-06
       1.000E-06  1.000E-06  1.000E-06  1.000E-06  1.000E-06  1.000E-06  1.000E-06  1.000E-06  1.000E-06  1.000E-06  1.000E-06
       1.000E-06  1.000E-06  1.000E-06  1.000E-06  1.000E-06  1.000E-06  1.000E-06  1.000E-06  1.000E-06  1.000E-06  1.000E-06
       1.000E-06  1.000E-06  1.000E-06  1.000E-06  1.000E-06  1.000E-06  1.000E-06  1.000E-06  1.000E-06  1.000E-06  1.000E-06
       1.000E-06  1.000E-06  1.000E-06  1.000E-06  1.000E-06  1.000E-06  1.000E-06  1.000E-06  1.000E-06  1.000E-06  1.000E-06
       1.000E-06  1.000E-06  1.000E-06  1.000E-06  1.000E-06  1.000E-06  1.000E-06  1.000E-06  1.000E-06  1.000E-06  1.000E-06
       1.000E-06  1.000E-06  1.000E-06  1.000E-06  1.000E-06  1.000E-06  1.000E-06  1.000E-06  1.000E-06  1.000E-06  1.000E-06
       1.000E-06  1.000E-06  1.000E-06  1.000E-06  1.000E-06  1.000E-06  1.000E-06  1.000E-06  1.000E-06  1.000E-06  1.000E-06
       1.000E-06  1.000E-06  1.000E-06  1.000E-06  1.000E-06  1.000E-06  1.000E-06  1.000E-06  1.000E-06  1.000E-06  1.000E-06
       1.000E-06  1.000E-06  1.000E-06  1.000E-06  1.000E-06  1.000E-06  1.000E-06  1.000E-06  1.000E-06  1.000E-06  1.000E-06
       1.000E-06  1.000E-06  1.000E-06  1.000E-06  1.000E-06  1.000E-06  1.000E-06  1.000E-06  1.000E-06  1.000E-06  1.000E-06
       1.000E-06  1.000E-06  1.000E-06  1.000E-06  1.000E-06  1.000E-06  1.000E-06  1.000E-06  1.000E-06  1.000E-06  1.000E-06
       1.000E-06  1.000E-06  1.000E-06  1.000E-06  1.000E-06  1.000E-06  1.000E-06  1.000E-06  1.000E-06  1.000E-06  1.000E-06
       1.000E-06  1.000E-06  1.000E-06  1.000E-06  1.000E-06  1.000E-06  1.000E-06  1.000E-06  1.000E-06  1.000E-06  1.000E-06
       1.000E-06  1.000E-06  1.000E-06  1.000E-06  1.000E-06  1.000E-06  1.000E-06  1.000E-06  1.000E-06  1.000E-06  1.000E-06
       1.000E-06  1.000E-06  1.000E-06  1.000E-06  1.000E-06  1.000E-06  1.000E-06  1.000E-06  1.000E-06  1.000E-06  1.000E-06
       1.000E-06  1.000E-06  1.000E-06  1.000E-06  1.000E-06  1.000E-06  1.000E-06  1.000E-06  1.000E-06  1.000E-06  1.000E-06
       1.000E-06  1.000E-06  1.000E-06  1.000E-06  1.000E-06  1.000E-06  1.000E-06  1.000E-06  1.000E-06  1.000E-06  1.000E-06
       1.000E-06  1.000E-06  1.000E-06  1.000E-06  1.000E-06  1.000E-06  1.000E-06  1.000E-06  1.000E-06  1.000E-06  1.000E-06
       1.000E-06  1.000E-06  1.000E-06  1.000E-06  1.000E-06  1.000E-06  1.000E-06  1.000E-06  1.000E-06  1.000E-06  1.000E-06
       1.000E-06  1.000E-06  1.000E-06  1.000E-06  1.000E-06  1.000E-06  1.000E-06  1.000E-06  1.000E-06  1.000E-06  1.000E-06
       1.000E-06  1.000E-06  1.000E-06  1.000E-06  1.000E-06  1.000E-06  1.000E-06  1.000E-06  1.000E-06  1.000E-06  1.000E-06
       1.000E-06  1.000E-06  1.000E-06  1.000E-06  1.000E-06  1.000E-06  1.000E-06  1.000E-06  1.000E-06  1.000E-06  1.000E-06
       1.000E-06  1.000E-06  1.000E-06  1.000E-06  1.000E-06  1.000E-06  1.000E-06  1.000E-06  1.000E-06  1.000E-06  1.000E-06
       1.000E-06  1.000E-06  1.000E-06  1.000E-06  1.000E-06  1.000E-06  1.000E-06  1.000E-06  1.000E-06  1.000E-06  1.000E-06
       1.000E-06  1.000E-06  1.000E-06  1.000E-06  1.000E-06  1.000E-06  1.000E-06  1.000E-06  1.000E-06  1.000E-06  1.000E-06
       1.000E-06  1.000E-06  1.000E-06  1.000E-06  1.000E-06  1.000E-06  1.000E-06  1.000E-06  1.000E-06  1.000E-06  1.000E-06
       1.000E-06  1.000E-06  1.000E-06  1.000E-06  1.000E-06  1.000E-06  1.000E-06  1.000E-06  1.000E-06  1.000E-06  1.000E-06
       1.000E-06  1.000E-06  1.000E-06  1.000E-06  1.000E-06  1.000E-06  1.000E-06  1.000E-06  1.000E-06  1.000E-06  1.000E-06
       1.000E-06  1.000E-06  1.000E-06  1.000E-06  1.000E-06  1.000E-06  1.000E-06  1.000E-06  1.000E-06  1.000E-06  1.000E-06
       1.000E-06  1.000E-06  1.000E-06  1.000E-06  1.000E-06  1.000E-06  1.000E-06  1.000E-06  1.000E-06  1.000E-06  1.000E-06
       1.000E-06  1.000E-06  1.000E-06  1.000E-06  1.000E-06  1.000E-06  1.000E-06  1.000E-06  1.000E-06  1.000E-06  1.000E-06
       1.000E-06  1.000E-06  1.000E-06  1.000E-06  1.000E-06  1.000E-06  1.000E-06  1.000E-06  1.000E-06  1.000E-06  1.000E-06
       1.000E-06  1.000E-06  1.000E-06  1.000E-06  1.000E-06  1.000E-06  1.000E-06  1.000E-06  1.000E-06  1.000E-06  1.000E-06
       1.000E-06  1.000E-06  1.000E-06  1.000E-06  1.000E-06  1.000E-06  1.000E-06  1.000E-06  1.000E-06  1.000E-06  1.000E-06
       1.000E-06  1.000E-06  1.000E-06  1.000E-06  1.000E-06  1.000E-06  1.000E-06  1.000E-06  1.000E-06  1.000E-06  1.000E-06
       1.000E-06  1.000E-06  1.000E-06  1.000E-06  1.000E-06  1.000E-06  1.000E-06  1.000E-06  1.000E-06  1.000E-06  1.000E-06
       1.000E-06  1.000E-06  1.000E-06  1.000E-06  1.000E-06  1.000E-06  1.000E-06  1.000E-06  1.000E-06  1.000E-06  1.000E-06
       1.000E-06  1.000E-06  1.000E-06  1.000E-06  1.000E-06  1.000E-06  1.000E-06  1.000E-06  1.000E-06  1.000E-06  1.000E-06
       1.000E-06  1.000E-06  1.000E-06  1.000E-06  1.000E-06  1.000E-06  1.000E-06  1.000E-06  1.000E-06  1.000E-06  1.000E-06
       1.000E-06  1.000E-06  1.000E-06  1.000E-06  1.000E-06  1.000E-06  1.000E-06  1.000E-06  1.000E-06  1.000E-06  1.000E-06
       1.000E-06  1.000E-06  1.000E-06  1.000E-06  1.000E-06  1.000E-06  1.000E-06  1.000E-06  1.000E-06  1.000E-06  1.000E-06
       1.000E-06  1.000E-06  1.000E-06  1.000E-06  1.000E-06  1.000E-06  1.000E-06  1.000E-06  1.000E-06  1.000E-06  1.000E-06
       1.000E-06  1.000E-06  1.000E-06  1.000E-06  1.000E-06  1.000E-06  1.000E-06  1.000E-06  1.000E-06  1.000E-06  1.000E-06
       1.000E-06  1.000E-06  1.000E-06  1.000E-06  1.000E-06  1.000E-06  1.000E-06  1.000E-06  1.000E-06  1.000E-06  1.000E-06
       1.000E-06  1.000E-06  1.000E-06  1.000E-06  1.000E-06  1.000E-06  1.000E-06  1.000E-06  1.000E-06  1.000E-06  1.000E-06
       1.000E-06  1.000E-06  1.000E-06  1.000E-06  1.000E-06  1.000E-06  1.000E-06  1.000E-06  1.000E-06  1.000E-06  1.000E-06
       1.000E-06  1.000E-06  1.000E-06  1.000E-06  1.000E-06  1.000E-06  1.000E-06  1.000E-06  1.000E-06  1.000E-06  1.000E-06
       1.000E-06  1.000E-06  1.000E-06  1.000E-06  1.000E-06  1.000E-06  1.000E-06  1.000E-06  1.000E-06  1.000E-06  1.000E-06
       1.000E-06  1.000E-06  1.000E-06  1.000E-06  1.000E-06  1.000E-06  1.000E-06  1.000E-06  1.000E-06  1.000E-06  1.000E-06
       1.000E-06  1.000E-06  1.000E-06  1.000E-06  1.000E-06  1.000E-06  1.000E-06  1.000E-06  1.000E-06  1.000E-06  1.000E-06
       1.000E-06  1.000E-06  1.000E-06  1.000E-06  1.000E-06  1.000E-06  1.000E-06  1.000E-06  1.000E-06  1.000E-06  1.000E-06
       1.000E-06  1.000E-06  1.000E-06  1.000E-06  1.000E-06  1.000E-06  1.000E-06  1.000E-06  1.000E-06  1.000E-06  1.000E-06
       1.000E-06  1.000E-06  1.000E-06  1.000E-06  1.000E-06  1.000E-06  1.000E-06  1.000E-06  1.000E-06  1.000E-06  1.000E-06
       1.000E-06  1.000E-06  1.000E-06  1.000E-06  1.000E-06  1.000E-06  1.000E-06  1.000E-06  1.000E-06  1.000E-06  1.000E-06
       1.000E-06  1.000E-06  1.000E-06  1.000E-06  1.000E-06  1.000E-06  1.000E-06  1.000E-06  1.000E-06  1.000E-06  1.000E-06
       1.000E-06  1.000E-06  1.000E-06  1.000E-06  1.000E-06  1.000E-06  1.000E-06  1.000E-06  1.000E-06  1.000E-06  1.000E-06
       1.000E-06  1.000E-06  1.000E-06  1.000E-06  1.000E-06  1.000E-06  1.000E-06  1.000E-06  1.000E-06  1.000E-06  1.000E-06
       1.000E-06  1.000E-06  1.000E-06  1.000E-06  1.000E-06  1.000E-06  1.000E-06  1.000E-06  1.000E-06  1.000E-06  1.000E-06
       1.000E-06  1.000E-06  1.000E-06  1.000E-06  1.000E-06  1.000E-06  1.000E-06  1.000E-06  1.000E-06  1.000E-06  1.000E-06
       1.000E-06  1.000E-06  1.000E-06  1.000E-06  1.000E-06  1.000E-06  1.000E-06  1.000E-06  1.000E-06  1.000E-06  1.000E-06
       1.000E-06  1.000E-06  1.000E-06  1.000E-06  1.000E-06  1.000E-06  1.000E-06  1.000E-06  1.000E-06  1.000E-06  1.000E-06
       1.000E-06  1.000E-06  1.000E-06  1.000E-06  1.000E-06  1.000E-06  1.000E-06  1.000E-06  1.000E-06  1.000E-06  1.000E-06
       1.000E-06  1.000E-06  1.000E-06  1.000E-06  1.000E-06  1.000E-06  1.000E-06  1.000E-06  1.000E-06  1.000E-06  1.000E-06
       1.000E-06  1.000E-06  1.000E-06  1.000E-06  1.000E-06  1.000E-06  1.000E-06  1.000E-06  1.000E-06  1.000E-06  1.000E-06
       1.000E-06  1.000E-06  1.000E-06  1.000E-06  1.000E-06  1.000E-06  1.000E-06  1.000E-06  1.000E-06  1.000E-06  1.000E-06
       1.000E-06  1.000E-06  1.000E-06  1.000E-06  1.000E-06  1.000E-06  1.000E-06  1.000E-06  1.000E-06  1.000E-06  1.000E-06
       1.000E-06  1.000E-06  1.000E-06  1.000E-06  1.000E-06  1.000E-06  1.000E-06  1.000E-06  1.000E-06  1.000E-06  1.000E-06
       1.000E-06  1.000E-06  1.000E-06  1.000E-06  1.000E-06  1.000E-06  1.000E-06  1.000E-06  1.000E-06  1.000E-06  1.000E-06
       1.000E-06  1.000E-06  1.000E-06  1.000E-06  1.000E-06  1.000E-06  1.000E-06  1.000E-06  1.000E-06  1.000E-06  1.000E-06
       1.000E-06  1.000E-06  1.000E-06  1.000E-06  1.000E-06  1.000E-06  1.000E-06  1.000E-06  1.000E-06  1.000E-06  1.000E-06
       1.000E-06  1.000E-06  1.000E-06  1.000E-06  1.000E-06  1.000E-06  1.000E-06  1.000E-06  1.000E-06  1.000E-06  1.000E-06
       1.000E-06  1.000E-06  1.000E-06  1.000E-06  1.000E-06  1.000E-06  1.000E-06  1.000E-06  1.000E-06  1.000E-06  1.000E-06
       1.000E-06  1.000E-06  1.000E-06  1.000E-06  1.000E-06  1.000E-06  1.000E-06  1.000E-06  1.000E-06  1.000E-06  1.000E-06
       1.000E-06  1.000E-06  1.000E-06  1.000E-06  1.000E-06  1.000E-06  1.000E-06  1.000E-06  1.000E-06  1.000E-06  1.000E-06
       1.000E-06  1.000E-06  1.000E-06  1.000E-06  1.000E-06  1.000E-06  1.000E-06  1.000E-06  1.000E-06  1.000E-06  1.000E-06
       1.000E-06  1.000E-06  1.000E-06  1.000E-06  1.000E-06  1.000E-06  1.000E-06  1.000E-06  1.000E-06  1.000E-06  1.000E-06
       1.000E-06  1.000E-06  1.000E-06  1.000E-06  1.000E-06  1.000E-06  1.000E-06  1.000E-06  1.000E-06  1.000E-06  1.000E-06
       1.000E-06  1.000E-06  1.000E-06  1.000E-06  1.000E-06  1.000E-06  1.000E-06  1.000E-06  1.000E-06  1.000E-06  1.000E-06
       1.000E-06  1.000E-06  1.000E-06  1.000E-06  1.000E-06  1.000E-06  1.000E-06  1.000E-06  1.000E-06  1.000E-06  1.000E-06
       1.000E-06  1.000E-06  1.000E-06  1.000E-06  1.000E-06  1.000E-06  1.000E-06  1.000E-06  1.000E-06  1.000E-06  1.000E-06
       1.000E-06  1.000E-06  1.000E-06  1.000E-06  1.000E-06  1.000E-06  1.000E-06  1.000E-06  1.000E-06  1.000E-06  1.000E-06
       1.000E-06  1.000E-06  1.000E-06  1.000E-06  1.000E-06  1.000E-06  1.000E-06  1.000E-06  1.000E-06  1.000E-06  1.000E-06
       1.000E-06  1.000E-06  1.000E-06  1.000E-06  1.000E-06  1.000E-06  1.000E-06  1.000E-06  1.000E-06  1.000E-06  1.000E-06
       1.000E-06  1.000E-06  1.000E-06  1.000E-06  1.000E-06  1.000E-06  1.000E-06  1.000E-06  1.000E-06  1.000E-06  1.000E-06
       1.000E-06  1.000E-06  1.000E-06  1.000E-06  1.000E-06  1.000E-06  1.000E-06  1.000E-06  1.000E-06  1.000E-06  1.000E-06
       1.000E-06  1.000E-06  1.000E-06  1.000E-06  1.000E-06  1.000E-06  1.000E-06  1.000E-06  1.000E-06  1.000E-06  1.000E-06
       1.000E-06  1.000E-06  1.000E-06  1.000E-06  1.000E-06  1.000E-06  1.000E-06  1.000E-06  1.000E-06  1.000E-06  1.000E-06
       1.000E-06  1.000E-06  1.000E-06  1.000E-06  1.000E-06  1.000E-06  1.000E-06  1.000E-06  1.000E-06  1.000E-06  1.000E-06
       1.000E-06  1.000E-06  1.000E-06  1.000E-06  1.000E-06  1.000E-06  1.000E-06  1.000E-06  1.000E-06  1.000E-06  1.000E-06
       1.000E-06  1.000E-06  1.000E-06  1.000E-06  1.000E-06  1.000E-06  1.000E-06  1.000E-06  1.000E-06  1.000E-06  1.000E-06
       1.000E-06  1.000E-06  1.000E-06  1.000E-06  1.000E-06  1.000E-06  1.000E-06  1.000E-06  1.000E-06  1.000E-06  1.000E-06
       1.000E-06  1.000E-06  1.000E-06  1.000E-06  1.000E-06  1.000E-06  1.000E-06  1.000E-06  1.000E-06  1.000E-06  1.000E-06
       1.000E-06  1.000E-06  1.000E-06  1.000E-06  1.000E-06  1.000E-06  1.000E-06  1.000E-06  1.000E-06  1.000E-06  1.000E-06
       1.000E-06  1.000E-06  1.000E-06  1.000E-06  1.000E-06  1.000E-06  1.000E-06  1.000E-06  1.000E-06  1.000E-06  1.000E-06
       1.000E-06  1.000E-06  1.000E-06  1.000E-06  1.000E-06  1.000E-06  1.000E-06  1.000E-06  1.000E-06  1.000E-06  1.000E-06
       1.000E-06  1.000E-06  1.000E-06  1.000E-06  1.000E-06  1.000E-06  1.000E-06  1.000E-06  1.000E-06  1.000E-06  1.000E-06
       1.000E-06  1.000E-06  1.000E-06  1.000E-06  1.000E-06  1.000E-06  1.000E-06  1.000E-06  1.000E-06  1.000E-06  1.000E-06
       1.000E-06  1.000E-06  1.000E-06  1.000E-06  1.000E-06  1.000E-06  1.000E-06  1.000E-06  1.000E-06  1.000E-06  1.000E-06
       1.000E-06  1.000E-06  1.000E-06  1.000E-06  1.000E-06  1.000E-06  1.000E-06  1.000E-06  1.000E-06  1.000E-06  1.000E-06
       1.000E-06  1.000E-06  1.000E-06  1.000E-06  1.000E-06  1.000E-06  1.000E-06  1.000E-06  1.000E-06  1.000E-06  1.000E-06
       1.000E-06  1.000E-06  1.000E-06  1.000E-06  1.000E-06  1.000E-06  1.000E-06  1.000E-06  1.000E-06  1.000E-06  1.000E-06
       1.000E-06  1.000E-06  1.000E-06  1.000E-06  1.000E-06  1.000E-06  1.000E-06  1.000E-06  1.000E-06  1.000E-06  1.000E-06
       1.000E-06  1.000E-06  1.000E-06  1.000E-06  1.000E-06  1.000E-06  1.000E-06  1.000E-06  1.000E-06  1.000E-06  1.000E-06
       1.000E-06  1.000E-06  1.000E-06  1.000E-06  1.000E-06  1.000E-06  1.000E-06  1.000E-06  1.000E-06  1.000E-06  1.000E-06
       1.000E-06  1.000E-06  1.000E-06  1.000E-06  1.000E-06  1.000E-06  1.000E-06  1.000E-06  1.000E-06  1.000E-06  1.000E-06
       1.000E-06  1.000E-06  1.000E-06  1.000E-06  1.000E-06  1.000E-06  1.000E-06  1.000E-06  1.000E-06  1.000E-06  1.000E-06
       1.000E-06  1.000E-06  1.000E-06  1.000E-06  1.000E-06  1.000E-06  1.000E-06  1.000E-06  1.000E-06  1.000E-06  1.000E-06
       1.000E-06  1.000E-06  1.000E-06  1.000E-06  1.000E-06  1.000E-06  1.000E-06  1.000E-06  1.000E-06  1.000E-06  1.000E-06
       1.000E-06  1.000E-06  1.000E-06  1.000E-06  1.000E-06  1.000E-06  1.000E-06  1.000E-06  1.000E-06  1.000E-06  1.000E-06
       1.000E-06  1.000E-06  1.000E-06  1.000E-06  1.000E-06  1.000E-06  1.000E-06  1.000E-06  1.000E-06  1.000E-06  1.000E-06
       1.000E-06  1.000E-06  1.000E-06  1.000E-06  1.000E-06  1.000E-06  1.000E-06  1.000E-06  1.000E-06  1.000E-06  1.000E-06
       1.000E-06  1.000E-06  1.000E-06  1.000E-06  1.000E-06  1.000E-06  1.000E-06  1.000E-06  1.000E-06  1.000E-06  1.000E-06
       1.000E-06  1.000E-06  1.000E-06  1.000E-06  1.000E-06  1.000E-06  1.000E-06  1.000E-06  1.000E-06  1.000E-06  1.000E-06
       1.000E-06  1.000E-06  1.000E-06  1.000E-06  1.000E-06  1.000E-06  1.000E-06  1.000E-06  1.000E-06  1.000E-06  1.000E-06
       1.000E-06  1.000E-06  1.000E-06  1.000E-06  1.000E-06  1.000E-06  1.000E-06  1.000E-06  1.000E-06  1.000E-06  1.000E-06
       1.000E-06  1.000E-06  1.000E-06  1.000E-06  1.000E-06  1.000E-06  1.000E-06  1.000E-06  1.000E-06  1.000E-06  1.000E-06
       1.000E-06  1.000E-06  1.000E-06  1.000E-06  1.000E-06  1.000E-06  1.000E-06  1.000E-06  1.000E-06  1.000E-06  1.000E-06
       1.000E-06  1.000E-06  1.000E-06  1.000E-06  1.000E-06  1.000E-06  1.000E-06  1.000E-06  1.000E-06  1.000E-06  1.000E-06
       1.000E-06  1.000E-06  1.000E-06  1.000E-06  1.000E-06  1.000E-06  1.000E-06  1.000E-06  1.000E-06  1.000E-06  1.000E-06
       1.000E-06  1.000E-06  1.000E-06  1.000E-06  1.000E-06  1.000E-06  1.000E-06  1.000E-06  1.000E-06  1.000E-06  1.000E-06
       1.000E-06  1.000E-06  1.000E-06  1.000E-06  1.000E-06  1.000E-06  1.000E-06  1.000E-06  1.000E-06  1.000E-06  1.000E-06
       1.000E-06  1.000E-06  1.000E-06  1.000E-06  1.000E-06  1.000E-06  1.000E-06  1.000E-06  1.000E-06  1.000E-06  1.000E-06
       1.000E-06  1.000E-06  1.000E-06  1.000E-06  1.000E-06  1.000E-06  1.000E-06  1.000E-06  1.000E-06  1.000E-06  1.000E-06
       1.000E-06  1.000E-06  1.000E-06  1.000E-06  1.000E-06  1.000E-06  1.000E-06  1.000E-06  1.000E-06  1.000E-06  1.000E-06
       1.000E-06  1.000E-06  1.000E-06  1.000E-06  1.000E-06  1.000E-06  1.000E-06  1.000E-06  1.000E-06  1.000E-06  1.000E-06
       1.000E-06  1.000E-06  1.000E-06  1.000E-06  1.000E-06  1.000E-06  1.000E-06  1.000E-06  1.000E-06  1.000E-06  1.000E-06
       1.000E-06  1.000E-06  1.000E-06  1.000E-06  1.000E-06  1.000E-06  1.000E-06  1.000E-06  1.000E-06  1.000E-06  1.000E-06
       1.000E-06  1.000E-06  1.000E-06  1.000E-06  1.000E-06  1.000E-06  1.000E-06  1.000E-06  1.000E-06  1.000E-06  1.000E-06
       1.000E-06  1.000E-06  1.000E-06  1.000E-06  1.000E-06  1.000E-06  1.000E-06  1.000E-06  1.000E-06  1.000E-06  1.000E-06
       1.000E-06  1.000E-06  1.000E-06  1.000E-06  1.000E-06  1.000E-06  1.000E-06  1.000E-06  1.000E-06  1.000E-06  1.000E-06
       1.000E-06  1.000E-06  1.000E-06  1.000E-06  1.000E-06  1.000E-06  1.000E-06  1.000E-06  1.000E-06  1.000E-06  1.000E-06
       1.000E-06  1.000E-06  1.000E-06  1.000E-06  1.000E-06  1.000E-06  1.000E-06  1.000E-06  1.000E-06  1.000E-06  1.000E-06
       1.000E-06  1.000E-06  1.000E-06  1.000E-06  1.000E-06  1.000E-06  1.000E-06  1.000E-06  1.000E-06  1.000E-06  1.000E-06
       1.000E-06  1.000E-06  1.000E-06  1.000E-06  1.000E-06  1.000E-06  1.000E-06  1.000E-06  1.000E-06  1.000E-06  1.000E-06
       1.000E-06  1.000E-06  1.000E-06  1.000E-06  1.000E-06  1.000E-06  1.000E-06  1.000E-06  1.000E-06  1.000E-06  1.000E-06
       1.000E-06  1.000E-06  1.000E-06  1.000E-06  1.000E-06  1.000E-06  1.000E-06  1.000E-06  1.000E-06  1.000E-06  1.000E-06
       1.000E-06  1.000E-06  1.000E-06  1.000E-06  1.000E-06  1.000E-06  1.000E-06  1.000E-06  1.000E-06  1.000E-06  1.000E-06
       1.000E-06  1.000E-06  1.000E-06  1.000E-06  1.000E-06  1.000E-06  1.000E-06  1.000E-06  1.000E-06  1.000E-06  1.000E-06
       1.000E-06  1.000E-06  1.000E-06  1.000E-06  1.000E-06  1.000E-06  1.000E-06  1.000E-06  1.000E-06  1.000E-06  1.000E-06
       1.000E-06  1.000E-06  1.000E-06  1.000E-06  1.000E-06  1.000E-06  1.000E-06  1.000E-06  1.000E-06  1.000E-06  1.000E-06
       1.000E-06  1.000E-06  1.000E-06  1.000E-06  1.000E-06  1.000E-06  1.000E-06  1.000E-06  1.000E-06  1.000E-06  1.000E-06
       1.000E-06  1.000E-06  1.000E-06  1.000E-06  1.000E-06  1.000E-06  1.000E-06  1.000E-06  1.000E-06  1.000E-06  1.000E-06
       1.000E-06  1.000E-06  1.000E-06  1.000E-06  1.000E-06  1.000E-06  1.000E-06  1.000E-06  1.000E-06  1.000E-06  1.000E-06
       1.000E-06  1.000E-06  1.000E-06  1.000E-06  1.000E-06  1.000E-06  1.000E-06  1.000E-06  1.000E-06  1.000E-06  1.000E-06
       1.000E-06  1.000E-06  1.000E-06  1.000E-06  1.000E-06  1.000E-06  1.000E-06  1.000E-06  1.000E-06  1.000E-06  1.000E-06
       1.000E-06  1.000E-06  1.000E-06  1.000E-06  1.000E-06  1.000E-06  1.000E-06  1.000E-06  1.000E-06  1.000E-06  1.000E-06
       1.000E-06  1.000E-06  1.000E-06  1.000E-06  1.000E-06  1.000E-06  1.000E-06  1.000E-06  1.000E-06  1.000E-06  1.000E-06
       1.000E-06  1.000E-06  1.000E-06  1.000E-06  1.000E-06  1.000E-06  1.000E-06  1.000E-06  1.000E-06  1.000E-06  1.000E-06
       1.000E-06  1.000E-06  1.000E-06  1.000E-06  1.000E-06  1.000E-06  1.000E-06  1.000E-06  1.000E-06  1.000E-06  1.000E-06
       1.000E-06  1.000E-06  1.000E-06  1.000E-06  1.000E-06  1.000E-06  1.000E-06  1.000E-06  1.000E-06  1.000E-06  1.000E-06
       1.000E-06  1.000E-06  1.000E-06  1.000E-06  1.000E-06  1.000E-06  1.000E-06  1.000E-06  1.000E-06  1.000E-06  1.000E-06
       1.000E-06  1.000E-06  1.000E-06  1.000E-06  1.000E-06  1.000E-06  1.000E-06  1.000E-06  1.000E-06  1.000E-06  1.000E-06
       1.000E-06  1.000E-06  1.000E-06  1.000E-06  1.000E-06  1.000E-06  1.000E-06  1.000E-06  1.000E-06  1.000E-06  1.000E-06
       1.000E-06  1.000E-06  1.000E-06  1.000E-06  1.000E-06  1.000E-06  1.000E-06  1.000E-06  1.000E-06  1.000E-06  1.000E-06
       1.000E-06  1.000E-06  1.000E-06  1.000E-06  1.000E-06  1.000E-06  1.000E-06  1.000E-06  1.000E-06  1.000E-06  1.000E-06
       1.000E-06  1.000E-06  1.000E-06  1.000E-06  1.000E-06  1.000E-06  1.000E-06  1.000E-06  1.000E-06  1.000E-06  1.000E-06
       1.000E-06  1.000E-06  1.000E-06  1.000E-06  1.000E-06  1.000E-06  1.000E-06  1.000E-06  1.000E-06  1.000E-06  1.000E-06
       1.000E-06  1.000E-06  1.000E-06  1.000E-06  1.000E-06  1.000E-06  1.000E-06  1.000E-06  1.000E-06  1.000E-06  1.000E-06
       1.000E-06  1.000E-06  1.000E-06  1.000E-06  1.000E-06  1.000E-06  1.000E-06  1.000E-06  1.000E-06  1.000E-06  1.000E-06
       1.000E-06  1.000E-06  1.000E-06  1.000E-06  1.000E-06  1.000E-06  1.000E-06  1.000E-06  1.000E-06  1.000E-06  1.000E-06
       1.000E-06  1.000E-06  1.000E-06  1.000E-06  1.000E-06  1.000E-06  1.000E-06  1.000E-06  1.000E-06  1.000E-06  1.000E-06
       1.000E-06  1.000E-06  1.000E-06  1.000E-06  1.000E-06  1.000E-06  1.000E-06  1.000E-06  1.000E-06  1.000E-06  1.000E-06
       1.000E-06  1.000E-06  1.000E-06  1.000E-06  1.000E-06  1.000E-06  1.000E-06  1.000E-06  1.000E-06  1.000E-06  1.000E-06
       1.000E-06  1.000E-06  1.000E-06  1.000E-06  1.000E-06  1.000E-06  1.000E-06  1.000E-06  1.000E-06  1.000E-06  1.000E-06
       1.000E-06  1.000E-06  1.000E-06  1.000E-06  1.000E-06  1.000E-06  1.000E-06  1.000E-06  1.000E-06  1.000E-06  1.000E-06
       1.000E-06  1.000E-06  1.000E-06  1.000E-06  1.000E-06  1.000E-06  1.000E-06  1.000E-06  1.000E-06  1.000E-06  1.000E-06
       1.000E-06  1.000E-06  1.000E-06  1.000E-06  1.000E-06  1.000E-06  1.000E-06  1.000E-06  1.000E-06  1.000E-06  1.000E-06
       1.000E-06  1.000E-06  1.000E-06  1.000E-06  1.000E-06  1.000E-06  1.000E-06  1.000E-06  1.000E-06  1.000E-06  1.000E-06
       1.000E-06  1.000E-06  1.000E-06  1.000E-06  1.000E-06  1.000E-06  1.000E-06  1.000E-06  1.000E-06  1.000E-06  1.000E-06
       1.000E-06  1.000E-06  1.000E-06  1.000E-06  1.000E-06  1.000E-06  1.000E-06  1.000E-06  1.000E-06  1.000E-06  1.000E-06
       1.000E-06  1.000E-06  1.000E-06  1.000E-06  1.000E-06  1.000E-06  1.000E-06  1.000E-06  1.000E-06  1.000E-06  1.000E-06
       1.000E-06  1.000E-06  1.000E-06  1.000E-06  1.000E-06  1.000E-06  1.000E-06  1.000E-06  1.000E-06  1.000E-06  1.000E-06
       1.000E-06  1.000E-06  1.000E-06  1.000E-06  1.000E-06  1.000E-06  1.000E-06  1.000E-06  1.000E-06  1.000E-06  1.000E-06
       1.000E-06  1.000E-06  1.000E-06  1.000E-06  1.000E-06  1.000E-06  1.000E-06  1.000E-06  1.000E-06  1.000E-06  1.000E-06
       1.000E-06  1.000E-06  1.000E-06  1.000E-06  1.000E-06  1.000E-06  1.000E-06  1.000E-06  1.000E-06  1.000E-06  1.000E-06
       1.000E-06  1.000E-06  1.000E-06  1.000E-06  1.000E-06  1.000E-06  1.000E-06  1.000E-06  1.000E-06  1.000E-06  1.000E-06
       1.000E-06  1.000E-06  1.000E-06  1.000E-06  1.000E-06  1.000E-06  1.000E-06  1.000E-06  1.000E-06  1.000E-06  1.000E-06
       1.000E-06  1.000E-06  1.000E-06  1.000E-06  1.000E-06  1.000E-06  1.000E-06  1.000E-06  1.000E-06  1.000E-06  1.000E-06
       1.000E-06  1.000E-06  1.000E-06  1.000E-06  1.000E-06  1.000E-06  1.000E-06  1.000E-06  1.000E-06  1.000E-06  1.000E-06
       1.000E-06  1.000E-06  1.000E-06  1.000E-06  1.000E-06  1.000E-06  1.000E-06  1.000E-06  1.000E-06  1.000E-06  1.000E-06
       1.000E-06  1.000E-06  1.000E-06  1.000E-06  1.000E-06  1.000E-06  1.000E-06  1.000E-06  1.000E-06  1.000E-06  1.000E-06
       1.000E-06  1.000E-06  1.000E-06  1.000E-06  1.000E-06  1.000E-06  1.000E-06  1.000E-06  1.000E-06  1.000E-06  1.000E-06
       1.000E-06  1.000E-06  1.000E-06  1.000E-06  1.000E-06  1.000E-06  1.000E-06  1.000E-06  1.000E-06  1.000E-06  1.000E-06
       1.000E-06  1.000E-06  1.000E-06  1.000E-06  1.000E-06  1.000E-06  1.000E-06  1.000E-06  1.000E-06  1.000E-06  1.000E-06
       1.000E-06  1.000E-06  1.000E-06  1.000E-06  1.000E-06  1.000E-06  1.000E-06  1.000E-06  1.000E-06  1.000E-06  1.000E-06
       1.000E-06  1.000E-06  1.000E-06  1.000E-06  1.000E-06  1.000E-06  1.000E-06  1.000E-06  1.000E-06  1.000E-06  1.000E-06
       1.000E-06  1.000E-06  1.000E-06  1.000E-06  1.000E-06  1.000E-06  1.000E-06  1.000E-06  1.000E-06  1.000E-06  1.000E-06
       1.000E-06  1.000E-06  1.000E-06  1.000E-06  1.000E-06  1.000E-06  1.000E-06  1.000E-06  1.000E-06  1.000E-06  1.000E-06
       1.000E-06  1.000E-06  1.000E-06  1.000E-06  1.000E-06  1.000E-06  1.000E-06  1.000E-06  1.000E-06  1.000E-06  1.000E-06
       1.000E-06  1.000E-06  1.000E-06  1.000E-06  1.000E-06  1.000E-06  1.000E-06  1.000E-06  1.000E-06  1.000E-06  1.000E-06
       1.000E-06  1.000E-06  1.000E-06  1.000E-06  1.000E-06  1.000E-06  1.000E-06  1.000E-06  1.000E-06  1.000E-06  1.000E-06
       1.000E-06  1.000E-06  1.000E-06  1.000E-06  1.000E-06  1.000E-06  1.000E-06  1.000E-06  1.000E-06  1.000E-06  1.000E-06
       1.000E-06  1.000E-06  1.000E-06  1.000E-06  1.000E-06  1.000E-06  1.000E-06  1.000E-06  1.000E-06  1.000E-06  1.000E-06
       1.000E-06  1.000E-06  1.000E-06  1.000E-06  1.000E-06  1.000E-06  1.000E-06  1.000E-06  1.000E-06  1.000E-06  1.000E-06
       1.000E-06  1.000E-06  1.000E-06  1.000E-06  1.000E-06  1.000E-06  1.000E-06  1.000E-06  1.000E-06  1.000E-06  1.000E-06
       1.000E-06  1.000E-06  1.000E-06  1.000E-06  1.000E-06  1.000E-06  1.000E-06  1.000E-06  1.000E-06  1.000E-06  1.000E-06
       1.000E-06  1.000E-06  1.000E-06  1.000E-06  1.000E-06  1.000E-06  1.000E-06  1.000E-06  1.000E-06  1.000E-06  1.000E-06
       1.000E-06  1.000E-06  1.000E-06  1.000E-06  1.000E-06  1.000E-06  1.000E-06  1.000E-06  1.000E-06  1.000E-06  1.000E-06
       1.000E-06  1.000E-06  1.000E-06  1.000E-06  1.000E-06  1.000E-06  1.000E-06  1.000E-06  1.000E-06  1.000E-06  1.000E-06
       1.000E-06  1.000E-06  1.000E-06  1.000E-06  1.000E-06  1.000E-06  1.000E-06  1.000E-06  1.000E-06  1.000E-06  1.000E-06
       1.000E-06  1.000E-06  1.000E-06  1.000E-06  1.000E-06  1.000E-06  1.000E-06  1.000E-06  1.000E-06  1.000E-06  1.000E-06
       1.000E-06  1.000E-06  1.000E-06  1.000E-06  1.000E-06  1.000E-06  1.000E-06  1.000E-06  1.000E-06  1.000E-06  1.000E-06
       1.000E-06  1.000E-06  1.000E-06  1.000E-06  1.000E-06  1.000E-06  1.000E-06  1.000E-06  1.000E-06  1.000E-06  1.000E-06
       1.000E-06  1.000E-06  1.000E-06  1.000E-06  1.000E-06  1.000E-06  1.000E-06  1.000E-06  1.000E-06  1.000E-06  1.000E-06
       1.000E-06  1.000E-06  1.000E-06  1.000E-06  1.000E-06  1.000E-06  1.000E-06  1.000E-06  1.000E-06  1.000E-06  1.000E-06
       1.000E-06  1.000E-06  1.000E-06  1.000E-06  1.000E-06  1.000E-06  1.000E-06  1.000E-06  1.000E-06  1.000E-06  1.000E-06
       1.000E-06  1.000E-06  1.000E-06  1.000E-06  1.000E-06  1.000E-06  1.000E-06  1.000E-06  1.000E-06  1.000E-06  1.000E-06
       1.000E-06  1.000E-06  1.000E-06  1.000E-06  1.000E-06  1.000E-06  1.000E-06  1.000E-06  1.000E-06  1.000E-06  1.000E-06
       1.000E-06  1.000E-06  1.000E-06  1.000E-06  1.000E-06  1.000E-06  1.000E-06  1.000E-06  1.000E-06  1.000E-06  1.000E-06
       1.000E-06  1.000E-06  1.000E-06  1.000E-06  1.000E-06  1.000E-06  1.000E-06  1.000E-06  1.000E-06  1.000E-06  1.000E-06
       1.000E-06  1.000E-06  1.000E-06  1.000E-06  1.000E-06  1.000E-06  1.000E-06  1.000E-06  1.000E-06  1.000E-06  1.000E-06
       1.000E-06  1.000E-06  1.000E-06  1.000E-06  1.000E-06  1.000E-06  1.000E-06  1.000E-06  1.000E-06  1.000E-06  1.000E-06
       1.000E-06  1.000E-06  1.000E-06  1.000E-06  1.000E-06  1.000E-06  1.000E-06  1.000E-06  1.000E-06  1.000E-06  1.000E-06
       1.000E-06  1.000E-06  1.000E-06  1.000E-06  1.000E-06  1.000E-06  1.000E-06  1.000E-06  1.000E-06  1.000E-06  1.000E-06
       1.000E-06  1.000E-06  1.000E-06  1.000E-06  1.000E-06  1.000E-06  1.000E-06  1.000E-06  1.000E-06  1.000E-06  1.000E-06
       1.000E-06  1.000E-06  1.000E-06  1.000E-06  1.000E-06  1.000E-06  1.000E-06  1.000E-06  1.000E-06  1.000E-06  1.000E-06
       1.000E-06  1.000E-06  1.000E-06  1.000E-06  1.000E-06  1.000E-06  1.000E-06  1.000E-06  1.000E-06  1.000E-06  1.000E-06
       1.000E-06  1.000E-06  1.000E-06  1.000E-06  1.000E-06  1.000E-06  1.000E-06  1.000E-06  1.000E-06  1.000E-06  1.000E-06
       1.000E-06  1.000E-06  1.000E-06  1.000E-06  1.000E-06  1.000E-06  1.000E-06  1.000E-06  1.000E-06  1.000E-06  1.000E-06
       1.000E-06  1.000E-06  1.000E-06  1.000E-06  1.000E-06  1.000E-06  1.000E-06  1.000E-06  1.000E-06  1.000E-06  1.000E-06
       1.000E-06  1.000E-06  1.000E-06  1.000E-06  1.000E-06  1.000E-06  1.000E-06  1.000E-06  1.000E-06  1.000E-06  1.000E-06
       1.000E-06  1.000E-06  1.000E-06  1.000E-06  1.000E-06  1.000E-06  1.000E-06  1.000E-06  1.000E-06  1.000E-06  1.000E-06
       1.000E-06  1.000E-06  1.000E-06  1.000E-06  1.000E-06  1.000E-06  1.000E-06  1.000E-06  1.000E-06  1.000E-06  1.000E-06
       1.000E-06  1.000E-06  1.000E-06  1.000E-06  1.000E-06  1.000E-06  1.000E-06  1.000E-06  1.000E-06  1.000E-06  1.000E-06
       1.000E-06  1.000E-06  1.000E-06  1.000E-06  1.000E-06  1.000E-06  1.000E-06  1.000E-06  1.000E-06  1.000E-06  1.000E-06
       1.000E-06  1.000E-06  1.000E-06  1.000E-06  1.000E-06  1.000E-06  1.000E-06  1.000E-06  1.000E-06  1.000E-06  1.000E-06
       1.000E-06  1.000E-06  1.000E-06  1.000E-06  1.000E-06  1.000E-06  1.000E-06  1.000E-06  1.000E-06  1.000E-06  1.000E-06
       1.000E-06  1.000E-06  1.000E-06  1.000E-06  1.000E-06  1.000E-06  1.000E-06  1.000E-06  1.000E-06  1.000E-06  1.000E-06
       1.000E-06  1.000E-06  1.000E-06  1.000E-06  1.000E-06  1.000E-06  1.000E-06  1.000E-06  1.000E-06  1.000E-06  1.000E-06
       1.000E-06  1.000E-06  1.000E-06  1.000E-06  1.000E-06  1.000E-06  1.000E-06  1.000E-06  1.000E-06  1.000E-06  1.000E-06
       1.000E-06  1.000E-06  1.000E-06  1.000E-06  1.000E-06  1.000E-06  1.000E-06  1.000E-06  1.000E-06  1.000E-06  1.000E-06
       1.000E-06  1.000E-06  1.000E-06  1.000E-06  1.000E-06  1.000E-06  1.000E-06  1.000E-06  1.000E-06  1.000E-06  1.000E-06
       1.000E-06  1.000E-06  1.000E-06  1.000E-06  1.000E-06  1.000E-06  1.000E-06  1.000E-06  1.000E-06  1.000E-06  1.000E-06
       1.000E-06  1.000E-06  1.000E-06  1.000E-06  1.000E-06  1.000E-06  1.000E-06  1.000E-06  1.000E-06  1.000E-06  1.000E-06

         SPECIFIC STORAGE FOR LAYER 2
       1.000E-06  1.000E-06  1.000E-06  1.000E-06  1.000E-06  1.000E-06  1.000E-06  1.000E-06  1.000E-06  1.000E-06  1.000E-06
       1.000E-06  1.000E-06  1.000E-06  1.000E-06  1.000E-06  1.000E-06  1.000E-06  1.000E-06  1.000E-06  1.000E-06  1.000E-06
       1.000E-06  1.000E-06  1.000E-06  1.000E-06  1.000E-06  1.000E-06  1.000E-06  1.000E-06  1.000E-06  1.000E-06  1.000E-06
       1.000E-06  1.000E-06  1.000E-06  1.000E-06  1.000E-06  1.000E-06  1.000E-06  1.000E-06  1.000E-06  1.000E-06  1.000E-06
       1.000E-06  1.000E-06  1.000E-06  1.000E-06  1.000E-06  1.000E-06  1.000E-06  1.000E-06  1.000E-06  1.000E-06  1.000E-06
       1.000E-06  1.000E-06  1.000E-06  1.000E-06  1.000E-06  1.000E-06  1.000E-06  1.000E-06  1.000E-06  1.000E-06  1.000E-06
       1.000E-06  1.000E-06  1.000E-06  1.000E-06  1.000E-06  1.000E-06  1.000E-06  1.000E-06  1.000E-06  1.000E-06  1.000E-06
       1.000E-06  1.000E-06  1.000E-06  1.000E-06  1.000E-06  1.000E-06  1.000E-06  1.000E-06  1.000E-06  1.000E-06  1.000E-06
       1.000E-06  1.000E-06  1.000E-06  1.000E-06  1.000E-06  1.000E-06  1.000E-06  1.000E-06  1.000E-06  1.000E-06  1.000E-06
       1.000E-06  1.000E-06  1.000E-06  1.000E-06  1.000E-06  1.000E-06  1.000E-06  1.000E-06  1.000E-06  1.000E-06  1.000E-06
       1.000E-06  1.000E-06  1.000E-06  1.000E-06  1.000E-06  1.000E-06  1.000E-06  1.000E-06  1.000E-06  1.000E-06  1.000E-06
       1.000E-06  1.000E-06  1.000E-06  1.000E-06  1.000E-06  1.000E-06  1.000E-06  1.000E-06  1.000E-06  1.000E-06  1.000E-06
       1.000E-06  1.000E-06  1.000E-06  1.000E-06  1.000E-06  1.000E-06  1.000E-06  1.000E-06  1.000E-06  1.000E-06  1.000E-06
       1.000E-06  1.000E-06  1.000E-06  1.000E-06  1.000E-06  1.000E-06  1.000E-06  1.000E-06  1.000E-06  1.000E-06  1.000E-06
       1.000E-06  1.000E-06  1.000E-06  1.000E-06  1.000E-06  1.000E-06  1.000E-06  1.000E-06  1.000E-06  1.000E-06  1.000E-06
       1.000E-06  1.000E-06  1.000E-06  1.000E-06  1.000E-06  1.000E-06  1.000E-06  1.000E-06  1.000E-06  1.000E-06  1.000E-06
       1.000E-06  1.000E-06  1.000E-06  1.000E-06  1.000E-06  1.000E-06  1.000E-06  1.000E-06  1.000E-06  1.000E-06  1.000E-06
       1.000E-06  1.000E-06  1.000E-06  1.000E-06  1.000E-06  1.000E-06  1.000E-06  1.000E-06  1.000E-06  1.000E-06  1.000E-06
       1.000E-06  1.000E-06  1.000E-06  1.000E-06  1.000E-06  1.000E-06  1.000E-06  1.000E-06  1.000E-06  1.000E-06  1.000E-06
       1.000E-06  1.000E-06  1.000E-06  1.000E-06  1.000E-06  1.000E-06  1.000E-06  1.000E-06  1.000E-06  1.000E-06  1.000E-06
       1.000E-06  1.000E-06  1.000E-06  1.000E-06  1.000E-06  1.000E-06  1.000E-06  1.000E-06  1.000E-06  1.000E-06  1.000E-06
       1.000E-06  1.000E-06  1.000E-06  1.000E-06  1.000E-06  1.000E-06  1.000E-06  1.000E-06  1.000E-06  1.000E-06  1.000E-06
       1.000E-06  1.000E-06  1.000E-06  1.000E-06  1.000E-06  1.000E-06  1.000E-06  1.000E-06  1.000E-06  1.000E-06  1.000E-06
       1.000E-06  1.000E-06  1.000E-06  1.000E-06  1.000E-06  1.000E-06  1.000E-06  1.000E-06  1.000E-06  1.000E-06  1.000E-06
       1.000E-06  1.000E-06  1.000E-06  1.000E-06  1.000E-06  1.000E-06  1.000E-06  1.000E-06  1.000E-06  1.000E-06  1.000E-06
       1.000E-06  1.000E-06  1.000E-06  1.000E-06  1.000E-06  1.000E-06  1.000E-06  1.000E-06  1.000E-06  1.000E-06  1.000E-06
       1.000E-06  1.000E-06  1.000E-06  1.000E-06  1.000E-06  1.000E-06  1.000E-06  1.000E-06  1.000E-06  1.000E-06  1.000E-06
       1.000E-06  1.000E-06  1.000E-06  1.000E-06  1.000E-06  1.000E-06  1.000E-06  1.000E-06  1.000E-06  1.000E-06  1.000E-06
       1.000E-06  1.000E-06  1.000E-06  1.000E-06  1.000E-06  1.000E-06  1.000E-06  1.000E-06  1.000E-06  1.000E-06  1.000E-06
       1.000E-06  1.000E-06  1.000E-06  1.000E-06  1.000E-06  1.000E-06  1.000E-06  1.000E-06  1.000E-06  1.000E-06  1.000E-06
       1.000E-06  1.000E-06  1.000E-06  1.000E-06  1.000E-06  1.000E-06  1.000E-06  1.000E-06  1.000E-06  1.000E-06  1.000E-06
       1.000E-06  1.000E-06  1.000E-06  1.000E-06  1.000E-06  1.000E-06  1.000E-06  1.000E-06  1.000E-06  1.000E-06  1.000E-06
       1.000E-06  1.000E-06  1.000E-06  1.000E-06  1.000E-06  1.000E-06  1.000E-06  1.000E-06  1.000E-06  1.000E-06  1.000E-06
       1.000E-06  1.000E-06  1.000E-06  1.000E-06  1.000E-06  1.000E-06  1.000E-06  1.000E-06  1.000E-06  1.000E-06  1.000E-06
       1.000E-06  1.000E-06  1.000E-06  1.000E-06  1.000E-06  1.000E-06  1.000E-06  1.000E-06  1.000E-06  1.000E-06  1.000E-06
       1.000E-06  1.000E-06  1.000E-06  1.000E-06  1.000E-06  1.000E-06  1.000E-06  1.000E-06  1.000E-06  1.000E-06  1.000E-06
       1.000E-06  1.000E-06  1.000E-06  1.000E-06  1.000E-06  1.000E-06  1.000E-06  1.000E-06  1.000E-06  1.000E-06  1.000E-06
       1.000E-06  1.000E-06  1.000E-06  1.000E-06  1.000E-06  1.000E-06  1.000E-06  1.000E-06  1.000E-06  1.000E-06  1.000E-06
       1.000E-06  1.000E-06  1.000E-06  1.000E-06  1.000E-06  1.000E-06  1.000E-06  1.000E-06  1.000E-06  1.000E-06  1.000E-06
       1.000E-06  1.000E-06  1.000E-06  1.000E-06  1.000E-06  1.000E-06  1.000E-06  1.000E-06  1.000E-06  1.000E-06  1.000E-06
       1.000E-06  1.000E-06  1.000E-06  1.000E-06  1.000E-06  1.000E-06  1.000E-06  1.000E-06  1.000E-06  1.000E-06  1.000E-06
       1.000E-06  1.000E-06  1.000E-06  1.000E-06  1.000E-06  1.000E-06  1.000E-06  1.000E-06  1.000E-06  1.000E-06  1.000E-06
       1.000E-06  1.000E-06  1.000E-06  1.000E-06  1.000E-06  1.000E-06  1.000E-06  1.000E-06  1.000E-06  1.000E-06  1.000E-06
       1.000E-06  1.000E-06  1.000E-06  1.000E-06  1.000E-06  1.000E-06  1.000E-06  1.000E-06  1.000E-06  1.000E-06  1.000E-06
       1.000E-06  1.000E-06  1.000E-06  1.000E-06  1.000E-06  1.000E-06  1.000E-06  1.000E-06  1.000E-06  1.000E-06  1.000E-06
       1.000E-06  1.000E-06  1.000E-06  1.000E-06  1.000E-06  1.000E-06  1.000E-06  1.000E-06  1.000E-06  1.000E-06  1.000E-06
       1.000E-06  1.000E-06  1.000E-06  1.000E-06  1.000E-06  1.000E-06  1.000E-06  1.000E-06  1.000E-06  1.000E-06  1.000E-06
       1.000E-06  1.000E-06  1.000E-06  1.000E-06  1.000E-06  1.000E-06  1.000E-06  1.000E-06  1.000E-06  1.000E-06  1.000E-06
       1.000E-06  1.000E-06  1.000E-06  1.000E-06  1.000E-06  1.000E-06  1.000E-06  1.000E-06  1.000E-06  1.000E-06  1.000E-06
       1.000E-06  1.000E-06  1.000E-06  1.000E-06  1.000E-06  1.000E-06  1.000E-06  1.000E-06  1.000E-06  1.000E-06  1.000E-06
       1.000E-06  1.000E-06  1.000E-06  1.000E-06  1.000E-06  1.000E-06  1.000E-06  1.000E-06  1.000E-06  1.000E-06  1.000E-06
       1.000E-06  1.000E-06  1.000E-06  1.000E-06  1.000E-06  1.000E-06  1.000E-06  1.000E-06  1.000E-06  1.000E-06  1.000E-06
       1.000E-06  1.000E-06  1.000E-06  1.000E-06  1.000E-06  1.000E-06  1.000E-06  1.000E-06  1.000E-06  1.000E-06  1.000E-06
       1.000E-06  1.000E-06  1.000E-06  1.000E-06  1.000E-06  1.000E-06  1.000E-06  1.000E-06  1.000E-06  1.000E-06  1.000E-06
       1.000E-06  1.000E-06  1.000E-06  1.000E-06  1.000E-06  1.000E-06  1.000E-06  1.000E-06  1.000E-06  1.000E-06  1.000E-06
       1.000E-06  1.000E-06  1.000E-06  1.000E-06  1.000E-06  1.000E-06  1.000E-06  1.000E-06  1.000E-06  1.000E-06  1.000E-06
       1.000E-06  1.000E-06  1.000E-06  1.000E-06  1.000E-06  1.000E-06  1.000E-06  1.000E-06  1.000E-06  1.000E-06  1.000E-06
       1.000E-06  1.000E-06  1.000E-06  1.000E-06  1.000E-06  1.000E-06  1.000E-06  1.000E-06  1.000E-06  1.000E-06  1.000E-06
       1.000E-06  1.000E-06  1.000E-06  1.000E-06  1.000E-06  1.000E-06  1.000E-06  1.000E-06  1.000E-06  1.000E-06  1.000E-06
       1.000E-06  1.000E-06  1.000E-06  1.000E-06  1.000E-06  1.000E-06  1.000E-06  1.000E-06  1.000E-06  1.000E-06  1.000E-06
       1.000E-06  1.000E-06  1.000E-06  1.000E-06  1.000E-06  1.000E-06  1.000E-06  1.000E-06  1.000E-06  1.000E-06  1.000E-06
       1.000E-06  1.000E-06  1.000E-06  1.000E-06  1.000E-06  1.000E-06  1.000E-06  1.000E-06  1.000E-06  1.000E-06  1.000E-06
       1.000E-06  1.000E-06  1.000E-06  1.000E-06  1.000E-06  1.000E-06  1.000E-06  1.000E-06  1.000E-06  1.000E-06  1.000E-06
       1.000E-06  1.000E-06  1.000E-06  1.000E-06  1.000E-06  1.000E-06  1.000E-06  1.000E-06  1.000E-06  1.000E-06  1.000E-06
       1.000E-06  1.000E-06  1.000E-06  1.000E-06  1.000E-06  1.000E-06  1.000E-06  1.000E-06  1.000E-06  1.000E-06  1.000E-06
       1.000E-06  1.000E-06  1.000E-06  1.000E-06  1.000E-06  1.000E-06  1.000E-06  1.000E-06  1.000E-06  1.000E-06  1.000E-06
       1.000E-06  1.000E-06  1.000E-06  1.000E-06  1.000E-06  1.000E-06  1.000E-06  1.000E-06  1.000E-06  1.000E-06  1.000E-06
       1.000E-06  1.000E-06  1.000E-06  1.000E-06  1.000E-06  1.000E-06  1.000E-06  1.000E-06  1.000E-06  1.000E-06  1.000E-06
       1.000E-06  1.000E-06  1.000E-06  1.000E-06  1.000E-06  1.000E-06  1.000E-06  1.000E-06  1.000E-06  1.000E-06  1.000E-06
       1.000E-06  1.000E-06  1.000E-06  1.000E-06  1.000E-06  1.000E-06  1.000E-06  1.000E-06  1.000E-06  1.000E-06  1.000E-06
       1.000E-06  1.000E-06  1.000E-06  1.000E-06  1.000E-06  1.000E-06  1.000E-06  1.000E-06  1.000E-06  1.000E-06  1.000E-06
       1.000E-06  1.000E-06  1.000E-06  1.000E-06  1.000E-06  1.000E-06  1.000E-06  1.000E-06  1.000E-06  1.000E-06  1.000E-06
       1.000E-06  1.000E-06  1.000E-06  1.000E-06  1.000E-06  1.000E-06  1.000E-06  1.000E-06  1.000E-06  1.000E-06  1.000E-06
       1.000E-06  1.000E-06  1.000E-06  1.000E-06  1.000E-06  1.000E-06  1.000E-06  1.000E-06  1.000E-06  1.000E-06  1.000E-06
       1.000E-06  1.000E-06  1.000E-06  1.000E-06  1.000E-06  1.000E-06  1.000E-06  1.000E-06  1.000E-06  1.000E-06  1.000E-06
       1.000E-06  1.000E-06  1.000E-06  1.000E-06  1.000E-06  1.000E-06  1.000E-06  1.000E-06  1.000E-06  1.000E-06  1.000E-06
       1.000E-06  1.000E-06  1.000E-06  1.000E-06  1.000E-06  1.000E-06  1.000E-06  1.000E-06  1.000E-06  1.000E-06  1.000E-06
       1.000E-06  1.000E-06  1.000E-06  1.000E-06  1.000E-06  1.000E-06  1.000E-06  1.000E-06  1.000E-06  1.000E-06  1.000E-06
       1.000E-06  1.000E-06  1.000E-06  1.000E-06  1.000E-06  1.000E-06  1.000E-06  1.000E-06  1.000E-06  1.000E-06  1.000E-06
       1.000E-06  1.000E-06  1.000E-06  1.000E-06  1.000E-06  1.000E-06  1.000E-06  1.000E-06  1.000E-06  1.000E-06  1.000E-06
       1.000E-06  1.000E-06  1.000E-06  1.000E-06  1.000E-06  1.000E-06  1.000E-06  1.000E-06  1.000E-06  1.000E-06  1.000E-06
       1.000E-06  1.000E-06  1.000E-06  1.000E-06  1.000E-06  1.000E-06  1.000E-06  1.000E-06  1.000E-06  1.000E-06  1.000E-06
       1.000E-06  1.000E-06  1.000E-06  1.000E-06  1.000E-06  1.000E-06  1.000E-06  1.000E-06  1.000E-06  1.000E-06  1.000E-06
       1.000E-06  1.000E-06  1.000E-06  1.000E-06  1.000E-06  1.000E-06  1.000E-06  1.000E-06  1.000E-06  1.000E-06  1.000E-06
       1.000E-06  1.000E-06  1.000E-06  1.000E-06  1.000E-06  1.000E-06  1.000E-06  1.000E-06  1.000E-06  1.000E-06  1.000E-06
       1.000E-06  1.000E-06  1.000E-06  1.000E-06  1.000E-06  1.000E-06  1.000E-06  1.000E-06  1.000E-06  1.000E-06  1.000E-06
       1.000E-06  1.000E-06  1.000E-06  1.000E-06  1.000E-06  1.000E-06  1.000E-06  1.000E-06  1.000E-06  1.000E-06  1.000E-06
       1.000E-06  1.000E-06  1.000E-06  1.000E-06  1.000E-06  1.000E-06  1.000E-06  1.000E-06  1.000E-06  1.000E-06  1.000E-06
       1.000E-06  1.000E-06  1.000E-06  1.000E-06  1.000E-06  1.000E-06  1.000E-06  1.000E-06  1.000E-06  1.000E-06  1.000E-06
       1.000E-06  1.000E-06  1.000E-06  1.000E-06  1.000E-06  1.000E-06  1.000E-06  1.000E-06  1.000E-06  1.000E-06  1.000E-06
       1.000E-06  1.000E-06  1.000E-06  1.000E-06  1.000E-06  1.000E-06  1.000E-06  1.000E-06  1.000E-06  1.000E-06  1.000E-06
       1.000E-06  1.000E-06  1.000E-06  1.000E-06  1.000E-06  1.000E-06  1.000E-06  1.000E-06  1.000E-06  1.000E-06  1.000E-06
       1.000E-06  1.000E-06  1.000E-06  1.000E-06  1.000E-06  1.000E-06  1.000E-06  1.000E-06  1.000E-06  1.000E-06  1.000E-06
       1.000E-06  1.000E-06  1.000E-06  1.000E-06  1.000E-06  1.000E-06  1.000E-06  1.000E-06  1.000E-06  1.000E-06  1.000E-06
       1.000E-06  1.000E-06  1.000E-06  1.000E-06  1.000E-06  1.000E-06  1.000E-06  1.000E-06  1.000E-06  1.000E-06  1.000E-06
       1.000E-06  1.000E-06  1.000E-06  1.000E-06  1.000E-06  1.000E-06  1.000E-06  1.000E-06  1.000E-06  1.000E-06  1.000E-06
       1.000E-06  1.000E-06  1.000E-06  1.000E-06  1.000E-06  1.000E-06  1.000E-06  1.000E-06  1.000E-06  1.000E-06  1.000E-06
       1.000E-06  1.000E-06  1.000E-06  1.000E-06  1.000E-06  1.000E-06  1.000E-06  1.000E-06  1.000E-06  1.000E-06  1.000E-06
       1.000E-06  1.000E-06  1.000E-06  1.000E-06  1.000E-06  1.000E-06  1.000E-06  1.000E-06  1.000E-06  1.000E-06  1.000E-06
       1.000E-06  1.000E-06  1.000E-06  1.000E-06  1.000E-06  1.000E-06  1.000E-06  1.000E-06  1.000E-06  1.000E-06  1.000E-06
       1.000E-06  1.000E-06  1.000E-06  1.000E-06  1.000E-06  1.000E-06  1.000E-06  1.000E-06  1.000E-06  1.000E-06  1.000E-06
       1.000E-06  1.000E-06  1.000E-06  1.000E-06  1.000E-06  1.000E-06  1.000E-06  1.000E-06  1.000E-06  1.000E-06  1.000E-06
       1.000E-06  1.000E-06  1.000E-06  1.000E-06  1.000E-06  1.000E-06  1.000E-06  1.000E-06  1.000E-06  1.000E-06  1.000E-06
       1.000E-06  1.000E-06  1.000E-06  1.000E-06  1.000E-06  1.000E-06  1.000E-06  1.000E-06  1.000E-06  1.000E-06  1.000E-06
       1.000E-06  1.000E-06  1.000E-06  1.000E-06  1.000E-06  1.000E-06  1.000E-06  1.000E-06  1.000E-06  1.000E-06  1.000E-06
       1.000E-06  1.000E-06  1.000E-06  1.000E-06  1.000E-06  1.000E-06  1.000E-06  1.000E-06  1.000E-06  1.000E-06  1.000E-06
       1.000E-06  1.000E-06  1.000E-06  1.000E-06  1.000E-06  1.000E-06  1.000E-06  1.000E-06  1.000E-06  1.000E-06  1.000E-06
       1.000E-06  1.000E-06  1.000E-06  1.000E-06  1.000E-06  1.000E-06  1.000E-06  1.000E-06  1.000E-06  1.000E-06  1.000E-06
       1.000E-06  1.000E-06  1.000E-06  1.000E-06  1.000E-06  1.000E-06  1.000E-06  1.000E-06  1.000E-06  1.000E-06  1.000E-06
       1.000E-06  1.000E-06  1.000E-06  1.000E-06  1.000E-06  1.000E-06  1.000E-06  1.000E-06  1.000E-06  1.000E-06  1.000E-06
       1.000E-06  1.000E-06  1.000E-06  1.000E-06  1.000E-06  1.000E-06  1.000E-06  1.000E-06  1.000E-06  1.000E-06  1.000E-06
       1.000E-06  1.000E-06  1.000E-06  1.000E-06  1.000E-06  1.000E-06  1.000E-06  1.000E-06  1.000E-06  1.000E-06  1.000E-06
       1.000E-06  1.000E-06  1.000E-06  1.000E-06  1.000E-06  1.000E-06  1.000E-06  1.000E-06  1.000E-06  1.000E-06  1.000E-06
       1.000E-06  1.000E-06  1.000E-06  1.000E-06  1.000E-06  1.000E-06  1.000E-06  1.000E-06  1.000E-06  1.000E-06  1.000E-06
       1.000E-06  1.000E-06  1.000E-06  1.000E-06  1.000E-06  1.000E-06  1.000E-06  1.000E-06  1.000E-06  1.000E-06  1.000E-06
       1.000E-06  1.000E-06  1.000E-06  1.000E-06  1.000E-06  1.000E-06  1.000E-06  1.000E-06  1.000E-06  1.000E-06  1.000E-06
       1.000E-06  1.000E-06  1.000E-06  1.000E-06  1.000E-06  1.000E-06  1.000E-06  1.000E-06  1.000E-06  1.000E-06  1.000E-06
       1.000E-06  1.000E-06  1.000E-06  1.000E-06  1.000E-06  1.000E-06  1.000E-06  1.000E-06  1.000E-06  1.000E-06  1.000E-06
       1.000E-06  1.000E-06  1.000E-06  1.000E-06  1.000E-06  1.000E-06  1.000E-06  1.000E-06  1.000E-06  1.000E-06  1.000E-06
       1.000E-06  1.000E-06  1.000E-06  1.000E-06  1.000E-06  1.000E-06  1.000E-06  1.000E-06  1.000E-06  1.000E-06  1.000E-06
       1.000E-06  1.000E-06  1.000E-06  1.000E-06  1.000E-06  1.000E-06  1.000E-06  1.000E-06  1.000E-06  1.000E-06  1.000E-06
       1.000E-06  1.000E-06  1.000E-06  1.000E-06  1.000E-06  1.000E-06  1.000E-06  1.000E-06  1.000E-06  1.000E-06  1.000E-06
       1.000E-06  1.000E-06  1.000E-06  1.000E-06  1.000E-06  1.000E-06  1.000E-06  1.000E-06  1.000E-06  1.000E-06  1.000E-06
       1.000E-06  1.000E-06  1.000E-06  1.000E-06  1.000E-06  1.000E-06  1.000E-06  1.000E-06  1.000E-06  1.000E-06  1.000E-06
       1.000E-06  1.000E-06  1.000E-06  1.000E-06  1.000E-06  1.000E-06  1.000E-06  1.000E-06  1.000E-06  1.000E-06  1.000E-06
       1.000E-06  1.000E-06  1.000E-06  1.000E-06  1.000E-06  1.000E-06  1.000E-06  1.000E-06  1.000E-06  1.000E-06  1.000E-06
       1.000E-06  1.000E-06  1.000E-06  1.000E-06  1.000E-06  1.000E-06  1.000E-06  1.000E-06  1.000E-06  1.000E-06  1.000E-06
       1.000E-06  1.000E-06  1.000E-06  1.000E-06  1.000E-06  1.000E-06  1.000E-06  1.000E-06  1.000E-06  1.000E-06  1.000E-06
       1.000E-06  1.000E-06  1.000E-06  1.000E-06  1.000E-06  1.000E-06  1.000E-06  1.000E-06  1.000E-06  1.000E-06  1.000E-06
       1.000E-06  1.000E-06  1.000E-06  1.000E-06  1.000E-06  1.000E-06  1.000E-06  1.000E-06  1.000E-06  1.000E-06  1.000E-06
       1.000E-06  1.000E-06  1.000E-06  1.000E-06  1.000E-06  1.000E-06  1.000E-06  1.000E-06  1.000E-06  1.000E-06  1.000E-06
       1.000E-06  1.000E-06  1.000E-06  1.000E-06  1.000E-06  1.000E-06  1.000E-06  1.000E-06  1.000E-06  1.000E-06  1.000E-06
       1.000E-06  1.000E-06  1.000E-06  1.000E-06  1.000E-06  1.000E-06  1.000E-06  1.000E-06  1.000E-06  1.000E-06  1.000E-06
       1.000E-06  1.000E-06  1.000E-06  1.000E-06  1.000E-06  1.000E-06  1.000E-06  1.000E-06  1.000E-06  1.000E-06  1.000E-06
       1.000E-06  1.000E-06  1.000E-06  1.000E-06  1.000E-06  1.000E-06  1.000E-06  1.000E-06  1.000E-06  1.000E-06  1.000E-06
       1.000E-06  1.000E-06  1.000E-06  1.000E-06  1.000E-06  1.000E-06  1.000E-06  1.000E-06  1.000E-06  1.000E-06  1.000E-06
       1.000E-06  1.000E-06  1.000E-06  1.000E-06  1.000E-06  1.000E-06  1.000E-06  1.000E-06  1.000E-06  1.000E-06  1.000E-06
       1.000E-06  1.000E-06  1.000E-06  1.000E-06  1.000E-06  1.000E-06  1.000E-06  1.000E-06  1.000E-06  1.000E-06  1.000E-06
       1.000E-06  1.000E-06  1.000E-06  1.000E-06  1.000E-06  1.000E-06  1.000E-06  1.000E-06  1.000E-06  1.000E-06  1.000E-06
       1.000E-06  1.000E-06  1.000E-06  1.000E-06  1.000E-06  1.000E-06  1.000E-06  1.000E-06  1.000E-06  1.000E-06  1.000E-06
       1.000E-06  1.000E-06  1.000E-06  1.000E-06  1.000E-06  1.000E-06  1.000E-06  1.000E-06  1.000E-06  1.000E-06  1.000E-06
       1.000E-06  1.000E-06  1.000E-06  1.000E-06  1.000E-06  1.000E-06  1.000E-06  1.000E-06  1.000E-06  1.000E-06  1.000E-06
       1.000E-06  1.000E-06  1.000E-06  1.000E-06  1.000E-06  1.000E-06  1.000E-06  1.000E-06  1.000E-06  1.000E-06  1.000E-06
       1.000E-06  1.000E-06  1.000E-06  1.000E-06  1.000E-06  1.000E-06  1.000E-06  1.000E-06  1.000E-06  1.000E-06  1.000E-06
       1.000E-06  1.000E-06  1.000E-06  1.000E-06  1.000E-06  1.000E-06  1.000E-06  1.000E-06  1.000E-06  1.000E-06  1.000E-06
       1.000E-06  1.000E-06  1.000E-06  1.000E-06  1.000E-06  1.000E-06  1.000E-06  1.000E-06  1.000E-06  1.000E-06  1.000E-06
       1.000E-06  1.000E-06  1.000E-06  1.000E-06  1.000E-06  1.000E-06  1.000E-06  1.000E-06  1.000E-06  1.000E-06  1.000E-06
       1.000E-06  1.000E-06  1.000E-06  1.000E-06  1.000E-06  1.000E-06  1.000E-06  1.000E-06  1.000E-06  1.000E-06  1.000E-06
       1.000E-06  1.000E-06  1.000E-06  1.000E-06  1.000E-06  1.000E-06  1.000E-06  1.000E-06  1.000E-06  1.000E-06  1.000E-06
       1.000E-06  1.000E-06  1.000E-06  1.000E-06  1.000E-06  1.000E-06  1.000E-06  1.000E-06  1.000E-06  1.000E-06  1.000E-06
       1.000E-06  1.000E-06  1.000E-06  1.000E-06  1.000E-06  1.000E-06  1.000E-06  1.000E-06  1.000E-06  1.000E-06  1.000E-06
       1.000E-06  1.000E-06  1.000E-06  1.000E-06  1.000E-06  1.000E-06  1.000E-06  1.000E-06  1.000E-06  1.000E-06  1.000E-06
       1.000E-06  1.000E-06  1.000E-06  1.000E-06  1.000E-06  1.000E-06  1.000E-06  1.000E-06  1.000E-06  1.000E-06  1.000E-06
       1.000E-06  1.000E-06  1.000E-06  1.000E-06  1.000E-06  1.000E-06  1.000E-06  1.000E-06  1.000E-06  1.000E-06  1.000E-06
       1.000E-06  1.000E-06  1.000E-06  1.000E-06  1.000E-06  1.000E-06  1.000E-06  1.000E-06  1.000E-06  1.000E-06  1.000E-06
       1.000E-06  1.000E-06  1.000E-06  1.000E-06  1.000E-06  1.000E-06  1.000E-06  1.000E-06  1.000E-06  1.000E-06  1.000E-06
       1.000E-06  1.000E-06  1.000E-06  1.000E-06  1.000E-06  1.000E-06  1.000E-06  1.000E-06  1.000E-06  1.000E-06  1.000E-06
       1.000E-06  1.000E-06  1.000E-06  1.000E-06  1.000E-06  1.000E-06  1.000E-06  1.000E-06  1.000E-06  1.000E-06  1.000E-06
       1.000E-06  1.000E-06  1.000E-06  1.000E-06  1.000E-06  1.000E-06  1.000E-06  1.000E-06  1.000E-06  1.000E-06  1.000E-06
       1.000E-06  1.000E-06  1.000E-06  1.000E-06  1.000E-06  1.000E-06  1.000E-06  1.000E-06  1.000E-06  1.000E-06  1.000E-06
       1.000E-06  1.000E-06  1.000E-06  1.000E-06  1.000E-06  1.000E-06  1.000E-06  1.000E-06  1.000E-06  1.000E-06  1.000E-06
       1.000E-06  1.000E-06  1.000E-06  1.000E-06  1.000E-06  1.000E-06  1.000E-06  1.000E-06  1.000E-06  1.000E-06  1.000E-06
       1.000E-06  1.000E-06  1.000E-06  1.000E-06  1.000E-06  1.000E-06  1.000E-06  1.000E-06  1.000E-06  1.000E-06  1.000E-06
       1.000E-06  1.000E-06  1.000E-06  1.000E-06  1.000E-06  1.000E-06  1.000E-06  1.000E-06  1.000E-06  1.000E-06  1.000E-06
       1.000E-06  1.000E-06  1.000E-06  1.000E-06  1.000E-06  1.000E-06  1.000E-06  1.000E-06  1.000E-06  1.000E-06  1.000E-06
       1.000E-06  1.000E-06  1.000E-06  1.000E-06  1.000E-06  1.000E-06  1.000E-06  1.000E-06  1.000E-06  1.000E-06  1.000E-06
       1.000E-06  1.000E-06  1.000E-06  1.000E-06  1.000E-06  1.000E-06  1.000E-06  1.000E-06  1.000E-06  1.000E-06  1.000E-06
       1.000E-06  1.000E-06  1.000E-06  1.000E-06  1.000E-06  1.000E-06  1.000E-06  1.000E-06  1.000E-06  1.000E-06  1.000E-06
       1.000E-06  1.000E-06  1.000E-06  1.000E-06  1.000E-06  1.000E-06  1.000E-06  1.000E-06  1.000E-06  1.000E-06  1.000E-06
       1.000E-06  1.000E-06  1.000E-06  1.000E-06  1.000E-06  1.000E-06  1.000E-06  1.000E-06  1.000E-06  1.000E-06  1.000E-06
       1.000E-06  1.000E-06  1.000E-06  1.000E-06  1.000E-06  1.000E-06  1.000E-06  1.000E-06  1.000E-06  1.000E-06  1.000E-06
       1.000E-06  1.000E-06  1.000E-06  1.000E-06  1.000E-06  1.000E-06  1.000E-06  1.000E-06  1.000E-06  1.000E-06  1.000E-06
       1.000E-06  1.000E-06  1.000E-06  1.000E-06  1.000E-06  1.000E-06  1.000E-06  1.000E-06  1.000E-06  1.000E-06  1.000E-06
       1.000E-06  1.000E-06  1.000E-06  1.000E-06  1.000E-06  1.000E-06  1.000E-06  1.000E-06  1.000E-06  1.000E-06  1.000E-06
       1.000E-06  1.000E-06  1.000E-06  1.000E-06  1.000E-06  1.000E-06  1.000E-06  1.000E-06  1.000E-06  1.000E-06  1.000E-06
       1.000E-06  1.000E-06  1.000E-06  1.000E-06  1.000E-06  1.000E-06  1.000E-06  1.000E-06  1.000E-06  1.000E-06  1.000E-06
       1.000E-06  1.000E-06  1.000E-06  1.000E-06  1.000E-06  1.000E-06  1.000E-06  1.000E-06  1.000E-06  1.000E-06  1.000E-06
       1.000E-06  1.000E-06  1.000E-06  1.000E-06  1.000E-06  1.000E-06  1.000E-06  1.000E-06  1.000E-06  1.000E-06  1.000E-06
       1.000E-06  1.000E-06  1.000E-06  1.000E-06  1.000E-06  1.000E-06  1.000E-06  1.000E-06  1.000E-06  1.000E-06  1.000E-06
       1.000E-06  1.000E-06  1.000E-06  1.000E-06  1.000E-06  1.000E-06  1.000E-06  1.000E-06  1.000E-06  1.000E-06  1.000E-06
       1.000E-06  1.000E-06  1.000E-06  1.000E-06  1.000E-06  1.000E-06  1.000E-06  1.000E-06  1.000E-06  1.000E-06  1.000E-06
       1.000E-06  1.000E-06  1.000E-06  1.000E-06  1.000E-06  1.000E-06  1.000E-06  1.000E-06  1.000E-06  1.000E-06  1.000E-06
       1.000E-06  1.000E-06  1.000E-06  1.000E-06  1.000E-06  1.000E-06  1.000E-06  1.000E-06  1.000E-06  1.000E-06  1.000E-06
       1.000E-06  1.000E-06  1.000E-06  1.000E-06  1.000E-06  1.000E-06  1.000E-06  1.000E-06  1.000E-06  1.000E-06  1.000E-06
       1.000E-06  1.000E-06  1.000E-06  1.000E-06  1.000E-06  1.000E-06  1.000E-06  1.000E-06  1.000E-06  1.000E-06  1.000E-06
       1.000E-06  1.000E-06  1.000E-06  1.000E-06  1.000E-06  1.000E-06  1.000E-06  1.000E-06  1.000E-06  1.000E-06  1.000E-06
       1.000E-06  1.000E-06  1.000E-06  1.000E-06  1.000E-06  1.000E-06  1.000E-06  1.000E-06  1.000E-06  1.000E-06  1.000E-06
       1.000E-06  1.000E-06  1.000E-06  1.000E-06  1.000E-06  1.000E-06  1.000E-06  1.000E-06  1.000E-06  1.000E-06  1.000E-06
       1.000E-06  1.000E-06  1.000E-06  1.000E-06  1.000E-06  1.000E-06  1.000E-06  1.000E-06  1.000E-06  1.000E-06  1.000E-06
       1.000E-06  1.000E-06  1.000E-06  1.000E-06  1.000E-06  1.000E-06  1.000E-06  1.000E-06  1.000E-06  1.000E-06  1.000E-06
       1.000E-06  1.000E-06  1.000E-06  1.000E-06  1.000E-06  1.000E-06  1.000E-06  1.000E-06  1.000E-06  1.000E-06  1.000E-06
       1.000E-06  1.000E-06  1.000E-06  1.000E-06  1.000E-06  1.000E-06  1.000E-06  1.000E-06  1.000E-06  1.000E-06  1.000E-06
       1.000E-06  1.000E-06  1.000E-06  1.000E-06  1.000E-06  1.000E-06  1.000E-06  1.000E-06  1.000E-06  1.000E-06  1.000E-06
       1.000E-06  1.000E-06  1.000E-06  1.000E-06  1.000E-06  1.000E-06  1.000E-06  1.000E-06  1.000E-06  1.000E-06  1.000E-06
       1.000E-06  1.000E-06  1.000E-06  1.000E-06  1.000E-06  1.000E-06  1.000E-06  1.000E-06  1.000E-06  1.000E-06  1.000E-06
       1.000E-06  1.000E-06  1.000E-06  1.000E-06  1.000E-06  1.000E-06  1.000E-06  1.000E-06  1.000E-06  1.000E-06  1.000E-06
       1.000E-06  1.000E-06  1.000E-06  1.000E-06  1.000E-06  1.000E-06  1.000E-06  1.000E-06  1.000E-06  1.000E-06  1.000E-06
       1.000E-06  1.000E-06  1.000E-06  1.000E-06  1.000E-06  1.000E-06  1.000E-06  1.000E-06  1.000E-06  1.000E-06  1.000E-06
       1.000E-06  1.000E-06  1.000E-06  1.000E-06  1.000E-06  1.000E-06  1.000E-06  1.000E-06  1.000E-06  1.000E-06  1.000E-06
       1.000E-06  1.000E-06  1.000E-06  1.000E-06  1.000E-06  1.000E-06  1.000E-06  1.000E-06  1.000E-06  1.000E-06  1.000E-06
       1.000E-06  1.000E-06  1.000E-06  1.000E-06  1.000E-06  1.000E-06  1.000E-06  1.000E-06  1.000E-06  1.000E-06  1.000E-06
       1.000E-06  1.000E-06  1.000E-06  1.000E-06  1.000E-06  1.000E-06  1.000E-06  1.000E-06  1.000E-06  1.000E-06  1.000E-06
       1.000E-06  1.000E-06  1.000E-06  1.000E-06  1.000E-06  1.000E-06  1.000E-06  1.000E-06  1.000E-06  1.000E-06  1.000E-06
       1.000E-06  1.000E-06  1.000E-06  1.000E-06  1.000E-06  1.000E-06  1.000E-06  1.000E-06  1.000E-06  1.000E-06  1.000E-06
       1.000E-06  1.000E-06  1.000E-06  1.000E-06  1.000E-06  1.000E-06  1.000E-06  1.000E-06  1.000E-06  1.000E-06  1.000E-06
       1.000E-06  1.000E-06  1.000E-06  1.000E-06  1.000E-06  1.000E-06  1.000E-06  1.000E-06  1.000E-06  1.000E-06  1.000E-06
       1.000E-06  1.000E-06  1.000E-06  1.000E-06  1.000E-06  1.000E-06  1.000E-06  1.000E-06  1.000E-06  1.000E-06  1.000E-06
       1.000E-06  1.000E-06  1.000E-06  1.000E-06  1.000E-06  1.000E-06  1.000E-06  1.000E-06  1.000E-06  1.000E-06  1.000E-06
       1.000E-06  1.000E-06  1.000E-06  1.000E-06  1.000E-06  1.000E-06  1.000E-06  1.000E-06  1.000E-06  1.000E-06  1.000E-06
       1.000E-06  1.000E-06  1.000E-06  1.000E-06  1.000E-06  1.000E-06  1.000E-06  1.000E-06  1.000E-06  1.000E-06  1.000E-06
       1.000E-06  1.000E-06  1.000E-06  1.000E-06  1.000E-06  1.000E-06  1.000E-06  1.000E-06  1.000E-06  1.000E-06  1.000E-06
       1.000E-06  1.000E-06  1.000E-06  1.000E-06  1.000E-06  1.000E-06  1.000E-06  1.000E-06  1.000E-06  1.000E-06  1.000E-06
       1.000E-06  1.000E-06  1.000E-06  1.000E-06  1.000E-06  1.000E-06  1.000E-06  1.000E-06  1.000E-06  1.000E-06  1.000E-06
       1.000E-06  1.000E-06  1.000E-06  1.000E-06  1.000E-06  1.000E-06  1.000E-06  1.000E-06  1.000E-06  1.000E-06  1.000E-06
       1.000E-06  1.000E-06  1.000E-06  1.000E-06  1.000E-06  1.000E-06  1.000E-06  1.000E-06  1.000E-06  1.000E-06  1.000E-06
       1.000E-06  1.000E-06  1.000E-06  1.000E-06  1.000E-06  1.000E-06  1.000E-06  1.000E-06  1.000E-06  1.000E-06  1.000E-06
       1.000E-06  1.000E-06  1.000E-06  1.000E-06  1.000E-06  1.000E-06  1.000E-06  1.000E-06  1.000E-06  1.000E-06  1.000E-06
       1.000E-06  1.000E-06  1.000E-06  1.000E-06  1.000E-06  1.000E-06  1.000E-06  1.000E-06  1.000E-06  1.000E-06  1.000E-06
       1.000E-06  1.000E-06  1.000E-06  1.000E-06  1.000E-06  1.000E-06  1.000E-06  1.000E-06  1.000E-06  1.000E-06  1.000E-06
       1.000E-06  1.000E-06  1.000E-06  1.000E-06  1.000E-06  1.000E-06  1.000E-06  1.000E-06  1.000E-06  1.000E-06  1.000E-06
       1.000E-06  1.000E-06  1.000E-06  1.000E-06  1.000E-06  1.000E-06  1.000E-06  1.000E-06  1.000E-06  1.000E-06  1.000E-06
       1.000E-06  1.000E-06  1.000E-06  1.000E-06  1.000E-06  1.000E-06  1.000E-06  1.000E-06  1.000E-06  1.000E-06  1.000E-06
       1.000E-06  1.000E-06  1.000E-06  1.000E-06  1.000E-06  1.000E-06  1.000E-06  1.000E-06  1.000E-06  1.000E-06  1.000E-06
       1.000E-06  1.000E-06  1.000E-06  1.000E-06  1.000E-06  1.000E-06  1.000E-06  1.000E-06  1.000E-06  1.000E-06  1.000E-06
       1.000E-06  1.000E-06  1.000E-06  1.000E-06  1.000E-06  1.000E-06  1.000E-06  1.000E-06  1.000E-06  1.000E-06  1.000E-06
       1.000E-06  1.000E-06  1.000E-06  1.000E-06  1.000E-06  1.000E-06  1.000E-06  1.000E-06  1.000E-06  1.000E-06  1.000E-06
       1.000E-06  1.000E-06  1.000E-06  1.000E-06  1.000E-06  1.000E-06  1.000E-06  1.000E-06  1.000E-06  1.000E-06  1.000E-06
       1.000E-06  1.000E-06  1.000E-06  1.000E-06  1.000E-06  1.000E-06  1.000E-06  1.000E-06  1.000E-06  1.000E-06  1.000E-06
       1.000E-06  1.000E-06  1.000E-06  1.000E-06  1.000E-06  1.000E-06  1.000E-06  1.000E-06  1.000E-06  1.000E-06  1.000E-06
       1.000E-06  1.000E-06  1.000E-06  1.000E-06  1.000E-06  1.000E-06  1.000E-06  1.000E-06  1.000E-06  1.000E-06  1.000E-06
       1.000E-06  1.000E-06  1.000E-06  1.000E-06  1.000E-06  1.000E-06  1.000E-06  1.000E-06  1.000E-06  1.000E-06  1.000E-06
       1.000E-06  1.000E-06  1.000E-06  1.000E-06  1.000E-06  1.000E-06  1.000E-06  1.000E-06  1.000E-06  1.000E-06  1.000E-06
       1.000E-06  1.000E-06  1.000E-06  1.000E-06  1.000E-06  1.000E-06  1.000E-06  1.000E-06  1.000E-06  1.000E-06  1.000E-06
       1.000E-06  1.000E-06  1.000E-06  1.000E-06  1.000E-06  1.000E-06  1.000E-06  1.000E-06  1.000E-06  1.000E-06  1.000E-06
       1.000E-06  1.000E-06  1.000E-06  1.000E-06  1.000E-06  1.000E-06  1.000E-06  1.000E-06  1.000E-06  1.000E-06  1.000E-06
       1.000E-06  1.000E-06  1.000E-06  1.000E-06  1.000E-06  1.000E-06  1.000E-06  1.000E-06  1.000E-06  1.000E-06  1.000E-06
       1.000E-06  1.000E-06  1.000E-06  1.000E-06  1.000E-06  1.000E-06  1.000E-06  1.000E-06  1.000E-06  1.000E-06  1.000E-06
       1.000E-06  1.000E-06  1.000E-06  1.000E-06  1.000E-06  1.000E-06  1.000E-06  1.000E-06  1.000E-06  1.000E-06  1.000E-06
       1.000E-06  1.000E-06  1.000E-06  1.000E-06  1.000E-06  1.000E-06  1.000E-06  1.000E-06  1.000E-06  1.000E-06  1.000E-06
       1.000E-06  1.000E-06  1.000E-06  1.000E-06  1.000E-06  1.000E-06  1.000E-06  1.000E-06  1.000E-06  1.000E-06  1.000E-06
       1.000E-06  1.000E-06  1.000E-06  1.000E-06  1.000E-06  1.000E-06  1.000E-06  1.000E-06  1.000E-06  1.000E-06  1.000E-06
       1.000E-06  1.000E-06  1.000E-06  1.000E-06  1.000E-06  1.000E-06  1.000E-06  1.000E-06  1.000E-06  1.000E-06  1.000E-06
       1.000E-06  1.000E-06  1.000E-06  1.000E-06  1.000E-06  1.000E-06  1.000E-06  1.000E-06  1.000E-06  1.000E-06  1.000E-06
       1.000E-06  1.000E-06  1.000E-06  1.000E-06  1.000E-06  1.000E-06  1.000E-06  1.000E-06  1.000E-06  1.000E-06  1.000E-06
       1.000E-06  1.000E-06  1.000E-06  1.000E-06  1.000E-06  1.000E-06  1.000E-06  1.000E-06  1.000E-06  1.000E-06  1.000E-06
       1.000E-06  1.000E-06  1.000E-06  1.000E-06  1.000E-06  1.000E-06  1.000E-06  1.000E-06  1.000E-06  1.000E-06  1.000E-06
       1.000E-06  1.000E-06  1.000E-06  1.000E-06  1.000E-06  1.000E-06  1.000E-06  1.000E-06  1.000E-06  1.000E-06  1.000E-06
       1.000E-06  1.000E-06  1.000E-06  1.000E-06  1.000E-06  1.000E-06  1.000E-06  1.000E-06  1.000E-06  1.000E-06  1.000E-06
       1.000E-06  1.000E-06  1.000E-06  1.000E-06  1.000E-06  1.000E-06  1.000E-06  1.000E-06  1.000E-06  1.000E-06  1.000E-06
       1.000E-06  1.000E-06  1.000E-06  1.000E-06  1.000E-06  1.000E-06  1.000E-06  1.000E-06  1.000E-06  1.000E-06  1.000E-06
       1.000E-06  1.000E-06  1.000E-06  1.000E-06  1.000E-06  1.000E-06  1.000E-06  1.000E-06  1.000E-06  1.000E-06  1.000E-06
       1.000E-06  1.000E-06  1.000E-06  1.000E-06  1.000E-06  1.000E-06  1.000E-06  1.000E-06  1.000E-06  1.000E-06  1.000E-06
       1.000E-06  1.000E-06  1.000E-06  1.000E-06  1.000E-06  1.000E-06  1.000E-06  1.000E-06  1.000E-06  1.000E-06  1.000E-06
       1.000E-06  1.000E-06  1.000E-06  1.000E-06  1.000E-06  1.000E-06  1.000E-06  1.000E-06  1.000E-06  1.000E-06  1.000E-06
       1.000E-06  1.000E-06  1.000E-06  1.000E-06  1.000E-06  1.000E-06  1.000E-06  1.000E-06  1.000E-06  1.000E-06  1.000E-06
       1.000E-06  1.000E-06  1.000E-06  1.000E-06  1.000E-06  1.000E-06  1.000E-06  1.000E-06  1.000E-06  1.000E-06  1.000E-06
       1.000E-06  1.000E-06  1.000E-06  1.000E-06  1.000E-06  1.000E-06  1.000E-06  1.000E-06  1.000E-06  1.000E-06  1.000E-06
       1.000E-06  1.000E-06  1.000E-06  1.000E-06  1.000E-06  1.000E-06  1.000E-06  1.000E-06  1.000E-06  1.000E-06  1.000E-06
       1.000E-06  1.000E-06  1.000E-06  1.000E-06  1.000E-06  1.000E-06  1.000E-06  1.000E-06  1.000E-06  1.000E-06  1.000E-06
       1.000E-06  1.000E-06  1.000E-06  1.000E-06  1.000E-06  1.000E-06  1.000E-06  1.000E-06  1.000E-06  1.000E-06  1.000E-06
       1.000E-06  1.000E-06  1.000E-06  1.000E-06  1.000E-06  1.000E-06  1.000E-06  1.000E-06  1.000E-06  1.000E-06  1.000E-06
       1.000E-06  1.000E-06  1.000E-06  1.000E-06  1.000E-06  1.000E-06  1.000E-06  1.000E-06  1.000E-06  1.000E-06  1.000E-06
       1.000E-06  1.000E-06  1.000E-06  1.000E-06  1.000E-06  1.000E-06  1.000E-06  1.000E-06  1.000E-06  1.000E-06  1.000E-06
       1.000E-06  1.000E-06  1.000E-06  1.000E-06  1.000E-06  1.000E-06  1.000E-06  1.000E-06  1.000E-06  1.000E-06  1.000E-06
       1.000E-06  1.000E-06  1.000E-06  1.000E-06  1.000E-06  1.000E-06  1.000E-06  1.000E-06  1.000E-06  1.000E-06  1.000E-06
       1.000E-06  1.000E-06  1.000E-06  1.000E-06  1.000E-06  1.000E-06  1.000E-06  1.000E-06  1.000E-06  1.000E-06  1.000E-06
       1.000E-06  1.000E-06  1.000E-06  1.000E-06  1.000E-06  1.000E-06  1.000E-06  1.000E-06  1.000E-06  1.000E-06  1.000E-06
       1.000E-06  1.000E-06  1.000E-06  1.000E-06  1.000E-06  1.000E-06  1.000E-06  1.000E-06  1.000E-06  1.000E-06  1.000E-06
       1.000E-06  1.000E-06  1.000E-06  1.000E-06  1.000E-06  1.000E-06  1.000E-06  1.000E-06  1.000E-06  1.000E-06  1.000E-06
       1.000E-06  1.000E-06  1.000E-06  1.000E-06  1.000E-06  1.000E-06  1.000E-06  1.000E-06  1.000E-06  1.000E-06  1.000E-06
       1.000E-06  1.000E-06  1.000E-06  1.000E-06  1.000E-06  1.000E-06  1.000E-06  1.000E-06  1.000E-06  1.000E-06  1.000E-06
       1.000E-06  1.000E-06  1.000E-06  1.000E-06  1.000E-06  1.000E-06  1.000E-06  1.000E-06  1.000E-06  1.000E-06  1.000E-06
       1.000E-06  1.000E-06  1.000E-06  1.000E-06  1.000E-06  1.000E-06  1.000E-06  1.000E-06  1.000E-06  1.000E-06  1.000E-06
       1.000E-06  1.000E-06  1.000E-06  1.000E-06  1.000E-06  1.000E-06  1.000E-06  1.000E-06  1.000E-06  1.000E-06  1.000E-06
       1.000E-06  1.000E-06  1.000E-06  1.000E-06  1.000E-06  1.000E-06  1.000E-06  1.000E-06  1.000E-06  1.000E-06  1.000E-06
       1.000E-06  1.000E-06  1.000E-06  1.000E-06  1.000E-06  1.000E-06  1.000E-06  1.000E-06  1.000E-06  1.000E-06  1.000E-06
       1.000E-06  1.000E-06  1.000E-06  1.000E-06  1.000E-06  1.000E-06  1.000E-06  1.000E-06  1.000E-06  1.000E-06  1.000E-06
       1.000E-06  1.000E-06  1.000E-06  1.000E-06  1.000E-06  1.000E-06  1.000E-06  1.000E-06  1.000E-06  1.000E-06  1.000E-06
       1.000E-06  1.000E-06  1.000E-06  1.000E-06  1.000E-06  1.000E-06  1.000E-06  1.000E-06  1.000E-06  1.000E-06  1.000E-06
       1.000E-06  1.000E-06  1.000E-06  1.000E-06  1.000E-06  1.000E-06  1.000E-06  1.000E-06  1.000E-06  1.000E-06  1.000E-06
       1.000E-06  1.000E-06  1.000E-06  1.000E-06  1.000E-06  1.000E-06  1.000E-06  1.000E-06  1.000E-06  1.000E-06  1.000E-06
       1.000E-06  1.000E-06  1.000E-06  1.000E-06  1.000E-06  1.000E-06  1.000E-06  1.000E-06  1.000E-06  1.000E-06  1.000E-06
       1.000E-06  1.000E-06  1.000E-06  1.000E-06  1.000E-06  1.000E-06  1.000E-06  1.000E-06  1.000E-06  1.000E-06  1.000E-06
       1.000E-06  1.000E-06  1.000E-06  1.000E-06  1.000E-06  1.000E-06  1.000E-06  1.000E-06  1.000E-06  1.000E-06  1.000E-06
       1.000E-06  1.000E-06  1.000E-06  1.000E-06  1.000E-06  1.000E-06  1.000E-06  1.000E-06  1.000E-06  1.000E-06  1.000E-06

         SPECIFIC STORAGE FOR LAYER 3
       1.000E-06  1.000E-06  1.000E-06  1.000E-06  1.000E-06  1.000E-06  1.000E-06  1.000E-06  1.000E-06  1.000E-06  1.000E-06
       1.000E-06  1.000E-06  1.000E-06  1.000E-06  1.000E-06  1.000E-06  1.000E-06  1.000E-06  1.000E-06  1.000E-06  1.000E-06
       1.000E-06  1.000E-06  1.000E-06  1.000E-06  1.000E-06  1.000E-06  1.000E-06  1.000E-06  1.000E-06  1.000E-06  1.000E-06
       1.000E-06  1.000E-06  1.000E-06  1.000E-06  1.000E-06  1.000E-06  1.000E-06  1.000E-06  1.000E-06  1.000E-06  1.000E-06
       1.000E-06  1.000E-06  1.000E-06  1.000E-06  1.000E-06  1.000E-06  1.000E-06  1.000E-06  1.000E-06  1.000E-06  1.000E-06
       1.000E-06  1.000E-06  1.000E-06  1.000E-06  1.000E-06  1.000E-06  1.000E-06  1.000E-06  1.000E-06  1.000E-06  1.000E-06
       1.000E-06  1.000E-06  1.000E-06  1.000E-06  1.000E-06  1.000E-06  1.000E-06  1.000E-06  1.000E-06  1.000E-06  1.000E-06
       1.000E-06  1.000E-06  1.000E-06  1.000E-06  1.000E-06  1.000E-06  1.000E-06  1.000E-06  1.000E-06  1.000E-06  1.000E-06
       1.000E-06  1.000E-06  1.000E-06  1.000E-06  1.000E-06  1.000E-06  1.000E-06  1.000E-06  1.000E-06  1.000E-06  1.000E-06
       1.000E-06  1.000E-06  1.000E-06  1.000E-06  1.000E-06  1.000E-06  1.000E-06  1.000E-06  1.000E-06  1.000E-06  1.000E-06
       1.000E-06  1.000E-06  1.000E-06  1.000E-06  1.000E-06  1.000E-06  1.000E-06  1.000E-06  1.000E-06  1.000E-06  1.000E-06
       1.000E-06  1.000E-06  1.000E-06  1.000E-06  1.000E-06  1.000E-06  1.000E-06  1.000E-06  1.000E-06  1.000E-06  1.000E-06
       1.000E-06  1.000E-06  1.000E-06  1.000E-06  1.000E-06  1.000E-06  1.000E-06  1.000E-06  1.000E-06  1.000E-06  1.000E-06
       1.000E-06  1.000E-06  1.000E-06  1.000E-06  1.000E-06  1.000E-06  1.000E-06  1.000E-06  1.000E-06  1.000E-06  1.000E-06
       1.000E-06  1.000E-06  1.000E-06  1.000E-06  1.000E-06  1.000E-06  1.000E-06  1.000E-06  1.000E-06  1.000E-06  1.000E-06
       1.000E-06  1.000E-06  1.000E-06  1.000E-06  1.000E-06  1.000E-06  1.000E-06  1.000E-06  1.000E-06  1.000E-06  1.000E-06
       1.000E-06  1.000E-06  1.000E-06  1.000E-06  1.000E-06  1.000E-06  1.000E-06  1.000E-06  1.000E-06  1.000E-06  1.000E-06
       1.000E-06  1.000E-06  1.000E-06  1.000E-06  1.000E-06  1.000E-06  1.000E-06  1.000E-06  1.000E-06  1.000E-06  1.000E-06
       1.000E-06  1.000E-06  1.000E-06  1.000E-06  1.000E-06  1.000E-06  1.000E-06  1.000E-06  1.000E-06  1.000E-06  1.000E-06
       1.000E-06  1.000E-06  1.000E-06  1.000E-06  1.000E-06  1.000E-06  1.000E-06  1.000E-06  1.000E-06  1.000E-06  1.000E-06
       1.000E-06  1.000E-06  1.000E-06  1.000E-06  1.000E-06  1.000E-06  1.000E-06  1.000E-06  1.000E-06  1.000E-06  1.000E-06
       1.000E-06  1.000E-06  1.000E-06  1.000E-06  1.000E-06  1.000E-06  1.000E-06  1.000E-06  1.000E-06  1.000E-06  1.000E-06
       1.000E-06  1.000E-06  1.000E-06  1.000E-06  1.000E-06  1.000E-06  1.000E-06  1.000E-06  1.000E-06  1.000E-06  1.000E-06
       1.000E-06  1.000E-06  1.000E-06  1.000E-06  1.000E-06  1.000E-06  1.000E-06  1.000E-06  1.000E-06  1.000E-06  1.000E-06
       1.000E-06  1.000E-06  1.000E-06  1.000E-06  1.000E-06  1.000E-06  1.000E-06  1.000E-06  1.000E-06  1.000E-06  1.000E-06
       1.000E-06  1.000E-06  1.000E-06  1.000E-06  1.000E-06  1.000E-06  1.000E-06  1.000E-06  1.000E-06  1.000E-06  1.000E-06
       1.000E-06  1.000E-06  1.000E-06  1.000E-06  1.000E-06  1.000E-06  1.000E-06  1.000E-06  1.000E-06  1.000E-06  1.000E-06
       1.000E-06  1.000E-06  1.000E-06  1.000E-06  1.000E-06  1.000E-06  1.000E-06  1.000E-06  1.000E-06  1.000E-06  1.000E-06
       1.000E-06  1.000E-06  1.000E-06  1.000E-06  1.000E-06  1.000E-06  1.000E-06  1.000E-06  1.000E-06  1.000E-06  1.000E-06
       1.000E-06  1.000E-06  1.000E-06  1.000E-06  1.000E-06  1.000E-06  1.000E-06  1.000E-06  1.000E-06  1.000E-06  1.000E-06
       1.000E-06  1.000E-06  1.000E-06  1.000E-06  1.000E-06  1.000E-06  1.000E-06  1.000E-06  1.000E-06  1.000E-06  1.000E-06
       1.000E-06  1.000E-06  1.000E-06  1.000E-06  1.000E-06  1.000E-06  1.000E-06  1.000E-06  1.000E-06  1.000E-06  1.000E-06
       1.000E-06  1.000E-06  1.000E-06  1.000E-06  1.000E-06  1.000E-06  1.000E-06  1.000E-06  1.000E-06  1.000E-06  1.000E-06
       1.000E-06  1.000E-06  1.000E-06  1.000E-06  1.000E-06  1.000E-06  1.000E-06  1.000E-06  1.000E-06  1.000E-06  1.000E-06
       1.000E-06  1.000E-06  1.000E-06  1.000E-06  1.000E-06  1.000E-06  1.000E-06  1.000E-06  1.000E-06  1.000E-06  1.000E-06
       1.000E-06  1.000E-06  1.000E-06  1.000E-06  1.000E-06  1.000E-06  1.000E-06  1.000E-06  1.000E-06  1.000E-06  1.000E-06
       1.000E-06  1.000E-06  1.000E-06  1.000E-06  1.000E-06  1.000E-06  1.000E-06  1.000E-06  1.000E-06  1.000E-06  1.000E-06
       1.000E-06  1.000E-06  1.000E-06  1.000E-06  1.000E-06  1.000E-06  1.000E-06  1.000E-06  1.000E-06  1.000E-06  1.000E-06
       1.000E-06  1.000E-06  1.000E-06  1.000E-06  1.000E-06  1.000E-06  1.000E-06  1.000E-06  1.000E-06  1.000E-06  1.000E-06
       1.000E-06  1.000E-06  1.000E-06  1.000E-06  1.000E-06  1.000E-06  1.000E-06  1.000E-06  1.000E-06  1.000E-06  1.000E-06
       1.000E-06  1.000E-06  1.000E-06  1.000E-06  1.000E-06  1.000E-06  1.000E-06  1.000E-06  1.000E-06  1.000E-06  1.000E-06
       1.000E-06  1.000E-06  1.000E-06  1.000E-06  1.000E-06  1.000E-06  1.000E-06  1.000E-06  1.000E-06  1.000E-06  1.000E-06
       1.000E-06  1.000E-06  1.000E-06  1.000E-06  1.000E-06  1.000E-06  1.000E-06  1.000E-06  1.000E-06  1.000E-06  1.000E-06
       1.000E-06  1.000E-06  1.000E-06  1.000E-06  1.000E-06  1.000E-06  1.000E-06  1.000E-06  1.000E-06  1.000E-06  1.000E-06
       1.000E-06  1.000E-06  1.000E-06  1.000E-06  1.000E-06  1.000E-06  1.000E-06  1.000E-06  1.000E-06  1.000E-06  1.000E-06
       1.000E-06  1.000E-06  1.000E-06  1.000E-06  1.000E-06  1.000E-06  1.000E-06  1.000E-06  1.000E-06  1.000E-06  1.000E-06
       1.000E-06  1.000E-06  1.000E-06  1.000E-06  1.000E-06  1.000E-06  1.000E-06  1.000E-06  1.000E-06  1.000E-06  1.000E-06
       1.000E-06  1.000E-06  1.000E-06  1.000E-06  1.000E-06  1.000E-06  1.000E-06  1.000E-06  1.000E-06  1.000E-06  1.000E-06
       1.000E-06  1.000E-06  1.000E-06  1.000E-06  1.000E-06  1.000E-06  1.000E-06  1.000E-06  1.000E-06  1.000E-06  1.000E-06
       1.000E-06  1.000E-06  1.000E-06  1.000E-06  1.000E-06  1.000E-06  1.000E-06  1.000E-06  1.000E-06  1.000E-06  1.000E-06
       1.000E-06  1.000E-06  1.000E-06  1.000E-06  1.000E-06  1.000E-06  1.000E-06  1.000E-06  1.000E-06  1.000E-06  1.000E-06
       1.000E-06  1.000E-06  1.000E-06  1.000E-06  1.000E-06  1.000E-06  1.000E-06  1.000E-06  1.000E-06  1.000E-06  1.000E-06
       1.000E-06  1.000E-06  1.000E-06  1.000E-06  1.000E-06  1.000E-06  1.000E-06  1.000E-06  1.000E-06  1.000E-06  1.000E-06
       1.000E-06  1.000E-06  1.000E-06  1.000E-06  1.000E-06  1.000E-06  1.000E-06  1.000E-06  1.000E-06  1.000E-06  1.000E-06
       1.000E-06  1.000E-06  1.000E-06  1.000E-06  1.000E-06  1.000E-06  1.000E-06  1.000E-06  1.000E-06  1.000E-06  1.000E-06
       1.000E-06  1.000E-06  1.000E-06  1.000E-06  1.000E-06  1.000E-06  1.000E-06  1.000E-06  1.000E-06  1.000E-06  1.000E-06
       1.000E-06  1.000E-06  1.000E-06  1.000E-06  1.000E-06  1.000E-06  1.000E-06  1.000E-06  1.000E-06  1.000E-06  1.000E-06
       1.000E-06  1.000E-06  1.000E-06  1.000E-06  1.000E-06  1.000E-06  1.000E-06  1.000E-06  1.000E-06  1.000E-06  1.000E-06
       1.000E-06  1.000E-06  1.000E-06  1.000E-06  1.000E-06  1.000E-06  1.000E-06  1.000E-06  1.000E-06  1.000E-06  1.000E-06
       1.000E-06  1.000E-06  1.000E-06  1.000E-06  1.000E-06  1.000E-06  1.000E-06  1.000E-06  1.000E-06  1.000E-06  1.000E-06
       1.000E-06  1.000E-06  1.000E-06  1.000E-06  1.000E-06  1.000E-06  1.000E-06  1.000E-06  1.000E-06  1.000E-06  1.000E-06
       1.000E-06  1.000E-06  1.000E-06  1.000E-06  1.000E-06  1.000E-06  1.000E-06  1.000E-06  1.000E-06  1.000E-06  1.000E-06
       1.000E-06  1.000E-06  1.000E-06  1.000E-06  1.000E-06  1.000E-06  1.000E-06  1.000E-06  1.000E-06  1.000E-06  1.000E-06
       1.000E-06  1.000E-06  1.000E-06  1.000E-06  1.000E-06  1.000E-06  1.000E-06  1.000E-06  1.000E-06  1.000E-06  1.000E-06
       1.000E-06  1.000E-06  1.000E-06  1.000E-06  1.000E-06  1.000E-06  1.000E-06  1.000E-06  1.000E-06  1.000E-06  1.000E-06
       1.000E-06  1.000E-06  1.000E-06  1.000E-06  1.000E-06  1.000E-06  1.000E-06  1.000E-06  1.000E-06  1.000E-06  1.000E-06
       1.000E-06  1.000E-06  1.000E-06  1.000E-06  1.000E-06  1.000E-06  1.000E-06  1.000E-06  1.000E-06  1.000E-06  1.000E-06
       1.000E-06  1.000E-06  1.000E-06  1.000E-06  1.000E-06  1.000E-06  1.000E-06  1.000E-06  1.000E-06  1.000E-06  1.000E-06
       1.000E-06  1.000E-06  1.000E-06  1.000E-06  1.000E-06  1.000E-06  1.000E-06  1.000E-06  1.000E-06  1.000E-06  1.000E-06
       1.000E-06  1.000E-06  1.000E-06  1.000E-06  1.000E-06  1.000E-06  1.000E-06  1.000E-06  1.000E-06  1.000E-06  1.000E-06
       1.000E-06  1.000E-06  1.000E-06  1.000E-06  1.000E-06  1.000E-06  1.000E-06  1.000E-06  1.000E-06  1.000E-06  1.000E-06
       1.000E-06  1.000E-06  1.000E-06  1.000E-06  1.000E-06  1.000E-06  1.000E-06  1.000E-06  1.000E-06  1.000E-06  1.000E-06
       1.000E-06  1.000E-06  1.000E-06  1.000E-06  1.000E-06  1.000E-06  1.000E-06  1.000E-06  1.000E-06  1.000E-06  1.000E-06
       1.000E-06  1.000E-06  1.000E-06  1.000E-06  1.000E-06  1.000E-06  1.000E-06  1.000E-06  1.000E-06  1.000E-06  1.000E-06
       1.000E-06  1.000E-06  1.000E-06  1.000E-06  1.000E-06  1.000E-06  1.000E-06  1.000E-06  1.000E-06  1.000E-06  1.000E-06
       1.000E-06  1.000E-06  1.000E-06  1.000E-06  1.000E-06  1.000E-06  1.000E-06  1.000E-06  1.000E-06  1.000E-06  1.000E-06
       1.000E-06  1.000E-06  1.000E-06  1.000E-06  1.000E-06  1.000E-06  1.000E-06  1.000E-06  1.000E-06  1.000E-06  1.000E-06
       1.000E-06  1.000E-06  1.000E-06  1.000E-06  1.000E-06  1.000E-06  1.000E-06  1.000E-06  1.000E-06  1.000E-06  1.000E-06
       1.000E-06  1.000E-06  1.000E-06  1.000E-06  1.000E-06  1.000E-06  1.000E-06  1.000E-06  1.000E-06  1.000E-06  1.000E-06
       1.000E-06  1.000E-06  1.000E-06  1.000E-06  1.000E-06  1.000E-06  1.000E-06  1.000E-06  1.000E-06  1.000E-06  1.000E-06
       1.000E-06  1.000E-06  1.000E-06  1.000E-06  1.000E-06  1.000E-06  1.000E-06  1.000E-06  1.000E-06  1.000E-06  1.000E-06
       1.000E-06  1.000E-06  1.000E-06  1.000E-06  1.000E-06  1.000E-06  1.000E-06  1.000E-06  1.000E-06  1.000E-06  1.000E-06
       1.000E-06  1.000E-06  1.000E-06  1.000E-06  1.000E-06  1.000E-06  1.000E-06  1.000E-06  1.000E-06  1.000E-06  1.000E-06
       1.000E-06  1.000E-06  1.000E-06  1.000E-06  1.000E-06  1.000E-06  1.000E-06  1.000E-06  1.000E-06  1.000E-06  1.000E-06
       1.000E-06  1.000E-06  1.000E-06  1.000E-06  1.000E-06  1.000E-06  1.000E-06  1.000E-06  1.000E-06  1.000E-06  1.000E-06
       1.000E-06  1.000E-06  1.000E-06  1.000E-06  1.000E-06  1.000E-06  1.000E-06  1.000E-06  1.000E-06  1.000E-06  1.000E-06
       1.000E-06  1.000E-06  1.000E-06  1.000E-06  1.000E-06  1.000E-06  1.000E-06  1.000E-06  1.000E-06  1.000E-06  1.000E-06
       1.000E-06  1.000E-06  1.000E-06  1.000E-06  1.000E-06  1.000E-06  1.000E-06  1.000E-06  1.000E-06  1.000E-06  1.000E-06
       1.000E-06  1.000E-06  1.000E-06  1.000E-06  1.000E-06  1.000E-06  1.000E-06  1.000E-06  1.000E-06  1.000E-06  1.000E-06
       1.000E-06  1.000E-06  1.000E-06  1.000E-06  1.000E-06  1.000E-06  1.000E-06  1.000E-06  1.000E-06  1.000E-06  1.000E-06
       1.000E-06  1.000E-06  1.000E-06  1.000E-06  1.000E-06  1.000E-06  1.000E-06  1.000E-06  1.000E-06  1.000E-06  1.000E-06
       1.000E-06  1.000E-06  1.000E-06  1.000E-06  1.000E-06  1.000E-06  1.000E-06  1.000E-06  1.000E-06  1.000E-06  1.000E-06
       1.000E-06  1.000E-06  1.000E-06  1.000E-06  1.000E-06  1.000E-06  1.000E-06  1.000E-06  1.000E-06  1.000E-06  1.000E-06
       1.000E-06  1.000E-06  1.000E-06  1.000E-06  1.000E-06  1.000E-06  1.000E-06  1.000E-06  1.000E-06  1.000E-06  1.000E-06
       1.000E-06  1.000E-06  1.000E-06  1.000E-06  1.000E-06  1.000E-06  1.000E-06  1.000E-06  1.000E-06  1.000E-06  1.000E-06
       1.000E-06  1.000E-06  1.000E-06  1.000E-06  1.000E-06  1.000E-06  1.000E-06  1.000E-06  1.000E-06  1.000E-06  1.000E-06
       1.000E-06  1.000E-06  1.000E-06  1.000E-06  1.000E-06  1.000E-06  1.000E-06  1.000E-06  1.000E-06  1.000E-06  1.000E-06
       1.000E-06  1.000E-06  1.000E-06  1.000E-06  1.000E-06  1.000E-06  1.000E-06  1.000E-06  1.000E-06  1.000E-06  1.000E-06
       1.000E-06  1.000E-06  1.000E-06  1.000E-06  1.000E-06  1.000E-06  1.000E-06  1.000E-06  1.000E-06  1.000E-06  1.000E-06
       1.000E-06  1.000E-06  1.000E-06  1.000E-06  1.000E-06  1.000E-06  1.000E-06  1.000E-06  1.000E-06  1.000E-06  1.000E-06
       1.000E-06  1.000E-06  1.000E-06  1.000E-06  1.000E-06  1.000E-06  1.000E-06  1.000E-06  1.000E-06  1.000E-06  1.000E-06
       1.000E-06  1.000E-06  1.000E-06  1.000E-06  1.000E-06  1.000E-06  1.000E-06  1.000E-06  1.000E-06  1.000E-06  1.000E-06
       1.000E-06  1.000E-06  1.000E-06  1.000E-06  1.000E-06  1.000E-06  1.000E-06  1.000E-06  1.000E-06  1.000E-06  1.000E-06
       1.000E-06  1.000E-06  1.000E-06  1.000E-06  1.000E-06  1.000E-06  1.000E-06  1.000E-06  1.000E-06  1.000E-06  1.000E-06
       1.000E-06  1.000E-06  1.000E-06  1.000E-06  1.000E-06  1.000E-06  1.000E-06  1.000E-06  1.000E-06  1.000E-06  1.000E-06
       1.000E-06  1.000E-06  1.000E-06  1.000E-06  1.000E-06  1.000E-06  1.000E-06  1.000E-06  1.000E-06  1.000E-06  1.000E-06
       1.000E-06  1.000E-06  1.000E-06  1.000E-06  1.000E-06  1.000E-06  1.000E-06  1.000E-06  1.000E-06  1.000E-06  1.000E-06
       1.000E-06  1.000E-06  1.000E-06  1.000E-06  1.000E-06  1.000E-06  1.000E-06  1.000E-06  1.000E-06  1.000E-06  1.000E-06
       1.000E-06  1.000E-06  1.000E-06  1.000E-06  1.000E-06  1.000E-06  1.000E-06  1.000E-06  1.000E-06  1.000E-06  1.000E-06
       1.000E-06  1.000E-06  1.000E-06  1.000E-06  1.000E-06  1.000E-06  1.000E-06  1.000E-06  1.000E-06  1.000E-06  1.000E-06
       1.000E-06  1.000E-06  1.000E-06  1.000E-06  1.000E-06  1.000E-06  1.000E-06  1.000E-06  1.000E-06  1.000E-06  1.000E-06
       1.000E-06  1.000E-06  1.000E-06  1.000E-06  1.000E-06  1.000E-06  1.000E-06  1.000E-06  1.000E-06  1.000E-06  1.000E-06
       1.000E-06  1.000E-06  1.000E-06  1.000E-06  1.000E-06  1.000E-06  1.000E-06  1.000E-06  1.000E-06  1.000E-06  1.000E-06
       1.000E-06  1.000E-06  1.000E-06  1.000E-06  1.000E-06  1.000E-06  1.000E-06  1.000E-06  1.000E-06  1.000E-06  1.000E-06
       1.000E-06  1.000E-06  1.000E-06  1.000E-06  1.000E-06  1.000E-06  1.000E-06  1.000E-06  1.000E-06  1.000E-06  1.000E-06
       1.000E-06  1.000E-06  1.000E-06  1.000E-06  1.000E-06  1.000E-06  1.000E-06  1.000E-06  1.000E-06  1.000E-06  1.000E-06
       1.000E-06  1.000E-06  1.000E-06  1.000E-06  1.000E-06  1.000E-06  1.000E-06  1.000E-06  1.000E-06  1.000E-06  1.000E-06
       1.000E-06  1.000E-06  1.000E-06  1.000E-06  1.000E-06  1.000E-06  1.000E-06  1.000E-06  1.000E-06  1.000E-06  1.000E-06
       1.000E-06  1.000E-06  1.000E-06  1.000E-06  1.000E-06  1.000E-06  1.000E-06  1.000E-06  1.000E-06  1.000E-06  1.000E-06
       1.000E-06  1.000E-06  1.000E-06  1.000E-06  1.000E-06  1.000E-06  1.000E-06  1.000E-06  1.000E-06  1.000E-06  1.000E-06
       1.000E-06  1.000E-06  1.000E-06  1.000E-06  1.000E-06  1.000E-06  1.000E-06  1.000E-06  1.000E-06  1.000E-06  1.000E-06
       1.000E-06  1.000E-06  1.000E-06  1.000E-06  1.000E-06  1.000E-06  1.000E-06  1.000E-06  1.000E-06  1.000E-06  1.000E-06
       1.000E-06  1.000E-06  1.000E-06  1.000E-06  1.000E-06  1.000E-06  1.000E-06  1.000E-06  1.000E-06  1.000E-06  1.000E-06
       1.000E-06  1.000E-06  1.000E-06  1.000E-06  1.000E-06  1.000E-06  1.000E-06  1.000E-06  1.000E-06  1.000E-06  1.000E-06
       1.000E-06  1.000E-06  1.000E-06  1.000E-06  1.000E-06  1.000E-06  1.000E-06  1.000E-06  1.000E-06  1.000E-06  1.000E-06
       1.000E-06  1.000E-06  1.000E-06  1.000E-06  1.000E-06  1.000E-06  1.000E-06  1.000E-06  1.000E-06  1.000E-06  1.000E-06
       1.000E-06  1.000E-06  1.000E-06  1.000E-06  1.000E-06  1.000E-06  1.000E-06  1.000E-06  1.000E-06  1.000E-06  1.000E-06
       1.000E-06  1.000E-06  1.000E-06  1.000E-06  1.000E-06  1.000E-06  1.000E-06  1.000E-06  1.000E-06  1.000E-06  1.000E-06
       1.000E-06  1.000E-06  1.000E-06  1.000E-06  1.000E-06  1.000E-06  1.000E-06  1.000E-06  1.000E-06  1.000E-06  1.000E-06
       1.000E-06  1.000E-06  1.000E-06  1.000E-06  1.000E-06  1.000E-06  1.000E-06  1.000E-06  1.000E-06  1.000E-06  1.000E-06
       1.000E-06  1.000E-06  1.000E-06  1.000E-06  1.000E-06  1.000E-06  1.000E-06  1.000E-06  1.000E-06  1.000E-06  1.000E-06
       1.000E-06  1.000E-06  1.000E-06  1.000E-06  1.000E-06  1.000E-06  1.000E-06  1.000E-06  1.000E-06  1.000E-06  1.000E-06
       1.000E-06  1.000E-06  1.000E-06  1.000E-06  1.000E-06  1.000E-06  1.000E-06  1.000E-06  1.000E-06  1.000E-06  1.000E-06
       1.000E-06  1.000E-06  1.000E-06  1.000E-06  1.000E-06  1.000E-06  1.000E-06  1.000E-06  1.000E-06  1.000E-06  1.000E-06
       1.000E-06  1.000E-06  1.000E-06  1.000E-06  1.000E-06  1.000E-06  1.000E-06  1.000E-06  1.000E-06  1.000E-06  1.000E-06
       1.000E-06  1.000E-06  1.000E-06  1.000E-06  1.000E-06  1.000E-06  1.000E-06  1.000E-06  1.000E-06  1.000E-06  1.000E-06
       1.000E-06  1.000E-06  1.000E-06  1.000E-06  1.000E-06  1.000E-06  1.000E-06  1.000E-06  1.000E-06  1.000E-06  1.000E-06
       1.000E-06  1.000E-06  1.000E-06  1.000E-06  1.000E-06  1.000E-06  1.000E-06  1.000E-06  1.000E-06  1.000E-06  1.000E-06
       1.000E-06  1.000E-06  1.000E-06  1.000E-06  1.000E-06  1.000E-06  1.000E-06  1.000E-06  1.000E-06  1.000E-06  1.000E-06
       1.000E-06  1.000E-06  1.000E-06  1.000E-06  1.000E-06  1.000E-06  1.000E-06  1.000E-06  1.000E-06  1.000E-06  1.000E-06
       1.000E-06  1.000E-06  1.000E-06  1.000E-06  1.000E-06  1.000E-06  1.000E-06  1.000E-06  1.000E-06  1.000E-06  1.000E-06
       1.000E-06  1.000E-06  1.000E-06  1.000E-06  1.000E-06  1.000E-06  1.000E-06  1.000E-06  1.000E-06  1.000E-06  1.000E-06
       1.000E-06  1.000E-06  1.000E-06  1.000E-06  1.000E-06  1.000E-06  1.000E-06  1.000E-06  1.000E-06  1.000E-06  1.000E-06
       1.000E-06  1.000E-06  1.000E-06  1.000E-06  1.000E-06  1.000E-06  1.000E-06  1.000E-06  1.000E-06  1.000E-06  1.000E-06
       1.000E-06  1.000E-06  1.000E-06  1.000E-06  1.000E-06  1.000E-06  1.000E-06  1.000E-06  1.000E-06  1.000E-06  1.000E-06
       1.000E-06  1.000E-06  1.000E-06  1.000E-06  1.000E-06  1.000E-06  1.000E-06  1.000E-06  1.000E-06  1.000E-06  1.000E-06
       1.000E-06  1.000E-06  1.000E-06  1.000E-06  1.000E-06  1.000E-06  1.000E-06  1.000E-06  1.000E-06  1.000E-06  1.000E-06
       1.000E-06  1.000E-06  1.000E-06  1.000E-06  1.000E-06  1.000E-06  1.000E-06  1.000E-06  1.000E-06  1.000E-06  1.000E-06
       1.000E-06  1.000E-06  1.000E-06  1.000E-06  1.000E-06  1.000E-06  1.000E-06  1.000E-06  1.000E-06  1.000E-06  1.000E-06
       1.000E-06  1.000E-06  1.000E-06  1.000E-06  1.000E-06  1.000E-06  1.000E-06  1.000E-06  1.000E-06  1.000E-06  1.000E-06
       1.000E-06  1.000E-06  1.000E-06  1.000E-06  1.000E-06  1.000E-06  1.000E-06  1.000E-06  1.000E-06  1.000E-06  1.000E-06
       1.000E-06  1.000E-06  1.000E-06  1.000E-06  1.000E-06  1.000E-06  1.000E-06  1.000E-06  1.000E-06  1.000E-06  1.000E-06
       1.000E-06  1.000E-06  1.000E-06  1.000E-06  1.000E-06  1.000E-06  1.000E-06  1.000E-06  1.000E-06  1.000E-06  1.000E-06
       1.000E-06  1.000E-06  1.000E-06  1.000E-06  1.000E-06  1.000E-06  1.000E-06  1.000E-06  1.000E-06  1.000E-06  1.000E-06
       1.000E-06  1.000E-06  1.000E-06  1.000E-06  1.000E-06  1.000E-06  1.000E-06  1.000E-06  1.000E-06  1.000E-06  1.000E-06
       1.000E-06  1.000E-06  1.000E-06  1.000E-06  1.000E-06  1.000E-06  1.000E-06  1.000E-06  1.000E-06  1.000E-06  1.000E-06
       1.000E-06  1.000E-06  1.000E-06  1.000E-06  1.000E-06  1.000E-06  1.000E-06  1.000E-06  1.000E-06  1.000E-06  1.000E-06
       1.000E-06  1.000E-06  1.000E-06  1.000E-06  1.000E-06  1.000E-06  1.000E-06  1.000E-06  1.000E-06  1.000E-06  1.000E-06
       1.000E-06  1.000E-06  1.000E-06  1.000E-06  1.000E-06  1.000E-06  1.000E-06  1.000E-06  1.000E-06  1.000E-06  1.000E-06
       1.000E-06  1.000E-06  1.000E-06  1.000E-06  1.000E-06  1.000E-06  1.000E-06  1.000E-06  1.000E-06  1.000E-06  1.000E-06
       1.000E-06  1.000E-06  1.000E-06  1.000E-06  1.000E-06  1.000E-06  1.000E-06  1.000E-06  1.000E-06  1.000E-06  1.000E-06
       1.000E-06  1.000E-06  1.000E-06  1.000E-06  1.000E-06  1.000E-06  1.000E-06  1.000E-06  1.000E-06  1.000E-06  1.000E-06
       1.000E-06  1.000E-06  1.000E-06  1.000E-06  1.000E-06  1.000E-06  1.000E-06  1.000E-06  1.000E-06  1.000E-06  1.000E-06
       1.000E-06  1.000E-06  1.000E-06  1.000E-06  1.000E-06  1.000E-06  1.000E-06  1.000E-06  1.000E-06  1.000E-06  1.000E-06
       1.000E-06  1.000E-06  1.000E-06  1.000E-06  1.000E-06  1.000E-06  1.000E-06  1.000E-06  1.000E-06  1.000E-06  1.000E-06
       1.000E-06  1.000E-06  1.000E-06  1.000E-06  1.000E-06  1.000E-06  1.000E-06  1.000E-06  1.000E-06  1.000E-06  1.000E-06
       1.000E-06  1.000E-06  1.000E-06  1.000E-06  1.000E-06  1.000E-06  1.000E-06  1.000E-06  1.000E-06  1.000E-06  1.000E-06
       1.000E-06  1.000E-06  1.000E-06  1.000E-06  1.000E-06  1.000E-06  1.000E-06  1.000E-06  1.000E-06  1.000E-06  1.000E-06
       1.000E-06  1.000E-06  1.000E-06  1.000E-06  1.000E-06  1.000E-06  1.000E-06  1.000E-06  1.000E-06  1.000E-06  1.000E-06
       1.000E-06  1.000E-06  1.000E-06  1.000E-06  1.000E-06  1.000E-06  1.000E-06  1.000E-06  1.000E-06  1.000E-06  1.000E-06
       1.000E-06  1.000E-06  1.000E-06  1.000E-06  1.000E-06  1.000E-06  1.000E-06  1.000E-06  1.000E-06  1.000E-06  1.000E-06
       1.000E-06  1.000E-06  1.000E-06  1.000E-06  1.000E-06  1.000E-06  1.000E-06  1.000E-06  1.000E-06  1.000E-06  1.000E-06
       1.000E-06  1.000E-06  1.000E-06  1.000E-06  1.000E-06  1.000E-06  1.000E-06  1.000E-06  1.000E-06  1.000E-06  1.000E-06
       1.000E-06  1.000E-06  1.000E-06  1.000E-06  1.000E-06  1.000E-06  1.000E-06  1.000E-06  1.000E-06  1.000E-06  1.000E-06
       1.000E-06  1.000E-06  1.000E-06  1.000E-06  1.000E-06  1.000E-06  1.000E-06  1.000E-06  1.000E-06  1.000E-06  1.000E-06
       1.000E-06  1.000E-06  1.000E-06  1.000E-06  1.000E-06  1.000E-06  1.000E-06  1.000E-06  1.000E-06  1.000E-06  1.000E-06
       1.000E-06  1.000E-06  1.000E-06  1.000E-06  1.000E-06  1.000E-06  1.000E-06  1.000E-06  1.000E-06  1.000E-06  1.000E-06
       1.000E-06  1.000E-06  1.000E-06  1.000E-06  1.000E-06  1.000E-06  1.000E-06  1.000E-06  1.000E-06  1.000E-06  1.000E-06
       1.000E-06  1.000E-06  1.000E-06  1.000E-06  1.000E-06  1.000E-06  1.000E-06  1.000E-06  1.000E-06  1.000E-06  1.000E-06
       1.000E-06  1.000E-06  1.000E-06  1.000E-06  1.000E-06  1.000E-06  1.000E-06  1.000E-06  1.000E-06  1.000E-06  1.000E-06
       1.000E-06  1.000E-06  1.000E-06  1.000E-06  1.000E-06  1.000E-06  1.000E-06  1.000E-06  1.000E-06  1.000E-06  1.000E-06
       1.000E-06  1.000E-06  1.000E-06  1.000E-06  1.000E-06  1.000E-06  1.000E-06  1.000E-06  1.000E-06  1.000E-06  1.000E-06
       1.000E-06  1.000E-06  1.000E-06  1.000E-06  1.000E-06  1.000E-06  1.000E-06  1.000E-06  1.000E-06  1.000E-06  1.000E-06
       1.000E-06  1.000E-06  1.000E-06  1.000E-06  1.000E-06  1.000E-06  1.000E-06  1.000E-06  1.000E-06  1.000E-06  1.000E-06
       1.000E-06  1.000E-06  1.000E-06  1.000E-06  1.000E-06  1.000E-06  1.000E-06  1.000E-06  1.000E-06  1.000E-06  1.000E-06
       1.000E-06  1.000E-06  1.000E-06  1.000E-06  1.000E-06  1.000E-06  1.000E-06  1.000E-06  1.000E-06  1.000E-06  1.000E-06
       1.000E-06  1.000E-06  1.000E-06  1.000E-06  1.000E-06  1.000E-06  1.000E-06  1.000E-06  1.000E-06  1.000E-06  1.000E-06
       1.000E-06  1.000E-06  1.000E-06  1.000E-06  1.000E-06  1.000E-06  1.000E-06  1.000E-06  1.000E-06  1.000E-06  1.000E-06
       1.000E-06  1.000E-06  1.000E-06  1.000E-06  1.000E-06  1.000E-06  1.000E-06  1.000E-06  1.000E-06  1.000E-06  1.000E-06
       1.000E-06  1.000E-06  1.000E-06  1.000E-06  1.000E-06  1.000E-06  1.000E-06  1.000E-06  1.000E-06  1.000E-06  1.000E-06
       1.000E-06  1.000E-06  1.000E-06  1.000E-06  1.000E-06  1.000E-06  1.000E-06  1.000E-06  1.000E-06  1.000E-06  1.000E-06
       1.000E-06  1.000E-06  1.000E-06  1.000E-06  1.000E-06  1.000E-06  1.000E-06  1.000E-06  1.000E-06  1.000E-06  1.000E-06
       1.000E-06  1.000E-06  1.000E-06  1.000E-06  1.000E-06  1.000E-06  1.000E-06  1.000E-06  1.000E-06  1.000E-06  1.000E-06
       1.000E-06  1.000E-06  1.000E-06  1.000E-06  1.000E-06  1.000E-06  1.000E-06  1.000E-06  1.000E-06  1.000E-06  1.000E-06
       1.000E-06  1.000E-06  1.000E-06  1.000E-06  1.000E-06  1.000E-06  1.000E-06  1.000E-06  1.000E-06  1.000E-06  1.000E-06
       1.000E-06  1.000E-06  1.000E-06  1.000E-06  1.000E-06  1.000E-06  1.000E-06  1.000E-06  1.000E-06  1.000E-06  1.000E-06
       1.000E-06  1.000E-06  1.000E-06  1.000E-06  1.000E-06  1.000E-06  1.000E-06  1.000E-06  1.000E-06  1.000E-06  1.000E-06
       1.000E-06  1.000E-06  1.000E-06  1.000E-06  1.000E-06  1.000E-06  1.000E-06  1.000E-06  1.000E-06  1.000E-06  1.000E-06
       1.000E-06  1.000E-06  1.000E-06  1.000E-06  1.000E-06  1.000E-06  1.000E-06  1.000E-06  1.000E-06  1.000E-06  1.000E-06
       1.000E-06  1.000E-06  1.000E-06  1.000E-06  1.000E-06  1.000E-06  1.000E-06  1.000E-06  1.000E-06  1.000E-06  1.000E-06
       1.000E-06  1.000E-06  1.000E-06  1.000E-06  1.000E-06  1.000E-06  1.000E-06  1.000E-06  1.000E-06  1.000E-06  1.000E-06
       1.000E-06  1.000E-06  1.000E-06  1.000E-06  1.000E-06  1.000E-06  1.000E-06  1.000E-06  1.000E-06  1.000E-06  1.000E-06
       1.000E-06  1.000E-06  1.000E-06  1.000E-06  1.000E-06  1.000E-06  1.000E-06  1.000E-06  1.000E-06  1.000E-06  1.000E-06
       1.000E-06  1.000E-06  1.000E-06  1.000E-06  1.000E-06  1.000E-06  1.000E-06  1.000E-06  1.000E-06  1.000E-06  1.000E-06
       1.000E-06  1.000E-06  1.000E-06  1.000E-06  1.000E-06  1.000E-06  1.000E-06  1.000E-06  1.000E-06  1.000E-06  1.000E-06
       1.000E-06  1.000E-06  1.000E-06  1.000E-06  1.000E-06  1.000E-06  1.000E-06  1.000E-06  1.000E-06  1.000E-06  1.000E-06
       1.000E-06  1.000E-06  1.000E-06  1.000E-06  1.000E-06  1.000E-06  1.000E-06  1.000E-06  1.000E-06  1.000E-06  1.000E-06
       1.000E-06  1.000E-06  1.000E-06  1.000E-06  1.000E-06  1.000E-06  1.000E-06  1.000E-06  1.000E-06  1.000E-06  1.000E-06
       1.000E-06  1.000E-06  1.000E-06  1.000E-06  1.000E-06  1.000E-06  1.000E-06  1.000E-06  1.000E-06  1.000E-06  1.000E-06
       1.000E-06  1.000E-06  1.000E-06  1.000E-06  1.000E-06  1.000E-06  1.000E-06  1.000E-06  1.000E-06  1.000E-06  1.000E-06
       1.000E-06  1.000E-06  1.000E-06  1.000E-06  1.000E-06  1.000E-06  1.000E-06  1.000E-06  1.000E-06  1.000E-06  1.000E-06
       1.000E-06  1.000E-06  1.000E-06  1.000E-06  1.000E-06  1.000E-06  1.000E-06  1.000E-06  1.000E-06  1.000E-06  1.000E-06
       1.000E-06  1.000E-06  1.000E-06  1.000E-06  1.000E-06  1.000E-06  1.000E-06  1.000E-06  1.000E-06  1.000E-06  1.000E-06
       1.000E-06  1.000E-06  1.000E-06  1.000E-06  1.000E-06  1.000E-06  1.000E-06  1.000E-06  1.000E-06  1.000E-06  1.000E-06
       1.000E-06  1.000E-06  1.000E-06  1.000E-06  1.000E-06  1.000E-06  1.000E-06  1.000E-06  1.000E-06  1.000E-06  1.000E-06
       1.000E-06  1.000E-06  1.000E-06  1.000E-06  1.000E-06  1.000E-06  1.000E-06  1.000E-06  1.000E-06  1.000E-06  1.000E-06
       1.000E-06  1.000E-06  1.000E-06  1.000E-06  1.000E-06  1.000E-06  1.000E-06  1.000E-06  1.000E-06  1.000E-06  1.000E-06
       1.000E-06  1.000E-06  1.000E-06  1.000E-06  1.000E-06  1.000E-06  1.000E-06  1.000E-06  1.000E-06  1.000E-06  1.000E-06
       1.000E-06  1.000E-06  1.000E-06  1.000E-06  1.000E-06  1.000E-06  1.000E-06  1.000E-06  1.000E-06  1.000E-06  1.000E-06
       1.000E-06  1.000E-06  1.000E-06  1.000E-06  1.000E-06  1.000E-06  1.000E-06  1.000E-06  1.000E-06  1.000E-06  1.000E-06
       1.000E-06  1.000E-06  1.000E-06  1.000E-06  1.000E-06  1.000E-06  1.000E-06  1.000E-06  1.000E-06  1.000E-06  1.000E-06
       1.000E-06  1.000E-06  1.000E-06  1.000E-06  1.000E-06  1.000E-06  1.000E-06  1.000E-06  1.000E-06  1.000E-06  1.000E-06
       1.000E-06  1.000E-06  1.000E-06  1.000E-06  1.000E-06  1.000E-06  1.000E-06  1.000E-06  1.000E-06  1.000E-06  1.000E-06
       1.000E-06  1.000E-06  1.000E-06  1.000E-06  1.000E-06  1.000E-06  1.000E-06  1.000E-06  1.000E-06  1.000E-06  1.000E-06
       1.000E-06  1.000E-06  1.000E-06  1.000E-06  1.000E-06  1.000E-06  1.000E-06  1.000E-06  1.000E-06  1.000E-06  1.000E-06
       1.000E-06  1.000E-06  1.000E-06  1.000E-06  1.000E-06  1.000E-06  1.000E-06  1.000E-06  1.000E-06  1.000E-06  1.000E-06
       1.000E-06  1.000E-06  1.000E-06  1.000E-06  1.000E-06  1.000E-06  1.000E-06  1.000E-06  1.000E-06  1.000E-06  1.000E-06
       1.000E-06  1.000E-06  1.000E-06  1.000E-06  1.000E-06  1.000E-06  1.000E-06  1.000E-06  1.000E-06  1.000E-06  1.000E-06
       1.000E-06  1.000E-06  1.000E-06  1.000E-06  1.000E-06  1.000E-06  1.000E-06  1.000E-06  1.000E-06  1.000E-06  1.000E-06
       1.000E-06  1.000E-06  1.000E-06  1.000E-06  1.000E-06  1.000E-06  1.000E-06  1.000E-06  1.000E-06  1.000E-06  1.000E-06
       1.000E-06  1.000E-06  1.000E-06  1.000E-06  1.000E-06  1.000E-06  1.000E-06  1.000E-06  1.000E-06  1.000E-06  1.000E-06
       1.000E-06  1.000E-06  1.000E-06  1.000E-06  1.000E-06  1.000E-06  1.000E-06  1.000E-06  1.000E-06  1.000E-06  1.000E-06
       1.000E-06  1.000E-06  1.000E-06  1.000E-06  1.000E-06  1.000E-06  1.000E-06  1.000E-06  1.000E-06  1.000E-06  1.000E-06
       1.000E-06  1.000E-06  1.000E-06  1.000E-06  1.000E-06  1.000E-06  1.000E-06  1.000E-06  1.000E-06  1.000E-06  1.000E-06
       1.000E-06  1.000E-06  1.000E-06  1.000E-06  1.000E-06  1.000E-06  1.000E-06  1.000E-06  1.000E-06  1.000E-06  1.000E-06
       1.000E-06  1.000E-06  1.000E-06  1.000E-06  1.000E-06  1.000E-06  1.000E-06  1.000E-06  1.000E-06  1.000E-06  1.000E-06
       1.000E-06  1.000E-06  1.000E-06  1.000E-06  1.000E-06  1.000E-06  1.000E-06  1.000E-06  1.000E-06  1.000E-06  1.000E-06
       1.000E-06  1.000E-06  1.000E-06  1.000E-06  1.000E-06  1.000E-06  1.000E-06  1.000E-06  1.000E-06  1.000E-06  1.000E-06
       1.000E-06  1.000E-06  1.000E-06  1.000E-06  1.000E-06  1.000E-06  1.000E-06  1.000E-06  1.000E-06  1.000E-06  1.000E-06
       1.000E-06  1.000E-06  1.000E-06  1.000E-06  1.000E-06  1.000E-06  1.000E-06  1.000E-06  1.000E-06  1.000E-06  1.000E-06
       1.000E-06  1.000E-06  1.000E-06  1.000E-06  1.000E-06  1.000E-06  1.000E-06  1.000E-06  1.000E-06  1.000E-06  1.000E-06
       1.000E-06  1.000E-06  1.000E-06  1.000E-06  1.000E-06  1.000E-06  1.000E-06  1.000E-06  1.000E-06  1.000E-06  1.000E-06
       1.000E-06  1.000E-06  1.000E-06  1.000E-06  1.000E-06  1.000E-06  1.000E-06  1.000E-06  1.000E-06  1.000E-06  1.000E-06
       1.000E-06  1.000E-06  1.000E-06  1.000E-06  1.000E-06  1.000E-06  1.000E-06  1.000E-06  1.000E-06  1.000E-06  1.000E-06
       1.000E-06  1.000E-06  1.000E-06  1.000E-06  1.000E-06  1.000E-06  1.000E-06  1.000E-06  1.000E-06  1.000E-06  1.000E-06
       1.000E-06  1.000E-06  1.000E-06  1.000E-06  1.000E-06  1.000E-06  1.000E-06  1.000E-06  1.000E-06  1.000E-06  1.000E-06
       1.000E-06  1.000E-06  1.000E-06  1.000E-06  1.000E-06  1.000E-06  1.000E-06  1.000E-06  1.000E-06  1.000E-06  1.000E-06
       1.000E-06  1.000E-06  1.000E-06  1.000E-06  1.000E-06  1.000E-06  1.000E-06  1.000E-06  1.000E-06  1.000E-06  1.000E-06
       1.000E-06  1.000E-06  1.000E-06  1.000E-06  1.000E-06  1.000E-06  1.000E-06  1.000E-06  1.000E-06  1.000E-06  1.000E-06
       1.000E-06  1.000E-06  1.000E-06  1.000E-06  1.000E-06  1.000E-06  1.000E-06  1.000E-06  1.000E-06  1.000E-06  1.000E-06
       1.000E-06  1.000E-06  1.000E-06  1.000E-06  1.000E-06  1.000E-06  1.000E-06  1.000E-06  1.000E-06  1.000E-06  1.000E-06
       1.000E-06  1.000E-06  1.000E-06  1.000E-06  1.000E-06  1.000E-06  1.000E-06  1.000E-06  1.000E-06  1.000E-06  1.000E-06
       1.000E-06  1.000E-06  1.000E-06  1.000E-06  1.000E-06  1.000E-06  1.000E-06  1.000E-06  1.000E-06  1.000E-06  1.000E-06
       1.000E-06  1.000E-06  1.000E-06  1.000E-06  1.000E-06  1.000E-06  1.000E-06  1.000E-06  1.000E-06  1.000E-06  1.000E-06
       1.000E-06  1.000E-06  1.000E-06  1.000E-06  1.000E-06  1.000E-06  1.000E-06  1.000E-06  1.000E-06  1.000E-06  1.000E-06
       1.000E-06  1.000E-06  1.000E-06  1.000E-06  1.000E-06  1.000E-06  1.000E-06  1.000E-06  1.000E-06  1.000E-06  1.000E-06
       1.000E-06  1.000E-06  1.000E-06  1.000E-06  1.000E-06  1.000E-06  1.000E-06  1.000E-06  1.000E-06  1.000E-06  1.000E-06
       1.000E-06  1.000E-06  1.000E-06  1.000E-06  1.000E-06  1.000E-06  1.000E-06  1.000E-06  1.000E-06  1.000E-06  1.000E-06
       1.000E-06  1.000E-06  1.000E-06  1.000E-06  1.000E-06  1.000E-06  1.000E-06  1.000E-06  1.000E-06  1.000E-06  1.000E-06
       1.000E-06  1.000E-06  1.000E-06  1.000E-06  1.000E-06  1.000E-06  1.000E-06  1.000E-06  1.000E-06  1.000E-06  1.000E-06
       1.000E-06  1.000E-06  1.000E-06  1.000E-06  1.000E-06  1.000E-06  1.000E-06  1.000E-06  1.000E-06  1.000E-06  1.000E-06
       1.000E-06  1.000E-06  1.000E-06  1.000E-06  1.000E-06  1.000E-06  1.000E-06  1.000E-06  1.000E-06  1.000E-06  1.000E-06
       1.000E-06  1.000E-06  1.000E-06  1.000E-06  1.000E-06  1.000E-06  1.000E-06  1.000E-06  1.000E-06  1.000E-06  1.000E-06
       1.000E-06  1.000E-06  1.000E-06  1.000E-06  1.000E-06  1.000E-06  1.000E-06  1.000E-06  1.000E-06  1.000E-06  1.000E-06
       1.000E-06  1.000E-06  1.000E-06  1.000E-06  1.000E-06  1.000E-06  1.000E-06  1.000E-06  1.000E-06  1.000E-06  1.000E-06
       1.000E-06  1.000E-06  1.000E-06  1.000E-06  1.000E-06  1.000E-06  1.000E-06  1.000E-06  1.000E-06  1.000E-06  1.000E-06
       1.000E-06  1.000E-06  1.000E-06  1.000E-06  1.000E-06  1.000E-06  1.000E-06  1.000E-06  1.000E-06  1.000E-06  1.000E-06
       1.000E-06  1.000E-06  1.000E-06  1.000E-06  1.000E-06  1.000E-06  1.000E-06  1.000E-06  1.000E-06  1.000E-06  1.000E-06
       1.000E-06  1.000E-06  1.000E-06  1.000E-06  1.000E-06  1.000E-06  1.000E-06  1.000E-06  1.000E-06  1.000E-06  1.000E-06
       1.000E-06  1.000E-06  1.000E-06  1.000E-06  1.000E-06  1.000E-06  1.000E-06  1.000E-06  1.000E-06  1.000E-06  1.000E-06
       1.000E-06  1.000E-06  1.000E-06  1.000E-06  1.000E-06  1.000E-06  1.000E-06  1.000E-06  1.000E-06  1.000E-06  1.000E-06
       1.000E-06  1.000E-06  1.000E-06  1.000E-06  1.000E-06  1.000E-06  1.000E-06  1.000E-06  1.000E-06  1.000E-06  1.000E-06
       1.000E-06  1.000E-06  1.000E-06  1.000E-06  1.000E-06  1.000E-06  1.000E-06  1.000E-06  1.000E-06  1.000E-06  1.000E-06
       1.000E-06  1.000E-06  1.000E-06  1.000E-06  1.000E-06  1.000E-06  1.000E-06  1.000E-06  1.000E-06  1.000E-06  1.000E-06
       1.000E-06  1.000E-06  1.000E-06  1.000E-06  1.000E-06  1.000E-06  1.000E-06  1.000E-06  1.000E-06  1.000E-06  1.000E-06
       1.000E-06  1.000E-06  1.000E-06  1.000E-06  1.000E-06  1.000E-06  1.000E-06  1.000E-06  1.000E-06  1.000E-06  1.000E-06
       1.000E-06  1.000E-06  1.000E-06  1.000E-06  1.000E-06  1.000E-06  1.000E-06  1.000E-06  1.000E-06  1.000E-06  1.000E-06
       1.000E-06  1.000E-06  1.000E-06  1.000E-06  1.000E-06  1.000E-06  1.000E-06  1.000E-06  1.000E-06  1.000E-06  1.000E-06
       1.000E-06  1.000E-06  1.000E-06  1.000E-06  1.000E-06  1.000E-06  1.000E-06  1.000E-06  1.000E-06  1.000E-06  1.000E-06
       1.000E-06  1.000E-06  1.000E-06  1.000E-06  1.000E-06  1.000E-06  1.000E-06  1.000E-06  1.000E-06  1.000E-06  1.000E-06
       1.000E-06  1.000E-06  1.000E-06  1.000E-06  1.000E-06  1.000E-06  1.000E-06  1.000E-06  1.000E-06  1.000E-06  1.000E-06
       1.000E-06  1.000E-06  1.000E-06  1.000E-06  1.000E-06  1.000E-06  1.000E-06  1.000E-06  1.000E-06  1.000E-06  1.000E-06
       1.000E-06  1.000E-06  1.000E-06  1.000E-06  1.000E-06  1.000E-06  1.000E-06  1.000E-06  1.000E-06  1.000E-06  1.000E-06
       1.000E-06  1.000E-06  1.000E-06  1.000E-06  1.000E-06  1.000E-06  1.000E-06  1.000E-06  1.000E-06  1.000E-06  1.000E-06
       1.000E-06  1.000E-06  1.000E-06  1.000E-06  1.000E-06  1.000E-06  1.000E-06  1.000E-06  1.000E-06  1.000E-06  1.000E-06

           SPECIFIC YIELD =  0.2000000     FOR LAYER 1

           SPECIFIC YIELD =  0.2000000     FOR LAYER 2

           SPECIFIC YIELD =  0.2000000     FOR LAYER 3
 END PROCESSING GRIDDATA

The observation utility is active for "EXPERIMENTAL"
 # File generated by Flopy version 3.3.5 on 11/03/2021 at 09:22:55.

Processing observation options:

Text output number of digits of precision set to: 10
The PRINT_INPUT option has been specified.


 OBSERVATIONS READ FROM FILE "experimental.obs"
 ----------------------------------------------------------------------------------------------------------------------------------------------------------------------------------------------------------------------------
 NAME                                     TYPE                                       TIME         LOCATION DATA                              OUTPUT FILENAME                                                                 
 ----------------------------------------------------------------------------------------------------------------------------------------------------------------------------------------------------------------------------
 B9-2                                     CONTINUOUS  HEAD                           ALL TIMES    "1 351  1 352"                             head.obs.csv                                                                    
 B10-2                                    CONTINUOUS  HEAD                           ALL TIMES    "1 1254  1 1255"                           head.obs.csv                                                                    
 B12-1                                    CONTINUOUS  HEAD                           ALL TIMES    "1 1387  1 1388"                           head.obs.csv                                                                    
 B16-1                                    CONTINUOUS  HEAD                           ALL TIMES    "1 1981  1 1982"                           head.obs.csv                                                                    
 B2-1                                     CONTINUOUS  HEAD                           ALL TIMES    "1 1752  1 1753"                           head.obs.csv                                                                    
 B22-1                                    CONTINUOUS  HEAD                           ALL TIMES    "1 1473  1 1474"                           head.obs.csv                                                                    
 B27                                      CONTINUOUS  HEAD                           ALL TIMES    "1 1388  1 1389"                           head.obs.csv                                                                    
 B29                                      CONTINUOUS  HEAD                           ALL TIMES    "1 1557  1 1558"                           head.obs.csv                                                                    
 KB1-1                                    CONTINUOUS  HEAD                           ALL TIMES    "1 2347  1 2348"                           head.obs.csv                                                                    
 KB4-3                                    CONTINUOUS  HEAD                           ALL TIMES    "1 1279  1 1280"                           head.obs.csv                                                                    
 NI1301-1                                 CONTINUOUS  HEAD                           ALL TIMES    "1 1475  1 1476"                           head.obs.csv                                                                    
 NI1302-1                                 CONTINUOUS  HEAD                           ALL TIMES    "1 1474  1 1475"                           head.obs.csv                                                                    
 NI1403-1                                 CONTINUOUS  HEAD                           ALL TIMES    "1 2356  1 2357"                           head.obs.csv                                                                    
 NI1405-1                                 CONTINUOUS  HEAD                           ALL TIMES    "1 2196  1 2197"                           head.obs.csv                                                                    
 NI1407-1                                 CONTINUOUS  HEAD                           ALL TIMES    "1 1471  1 1472"                           head.obs.csv                                                                    
 NI1408-1                                 CONTINUOUS  HEAD                           ALL TIMES    "1 1384  1 1385"                           head.obs.csv                                                                    
 NI1409-1                                 CONTINUOUS  HEAD                           ALL TIMES    "1 1678  1 1679"                           head.obs.csv                                                                    
 NI1410-1                                 CONTINUOUS  HEAD                           ALL TIMES    "1 1680  1 1681"                           head.obs.csv                                                                    
 NI1411-1                                 CONTINUOUS  HEAD                           ALL TIMES    "1 1569  1 1570"                           head.obs.csv                                                                    
 NI1412-1                                 CONTINUOUS  HEAD                           ALL TIMES    "1 2355  1 2356"                           head.obs.csv                                                                    
 NI1413-1                                 CONTINUOUS  HEAD                           ALL TIMES    "1 2450  1 2451"                           head.obs.csv                                                                    
 NI1501-1                                 CONTINUOUS  HEAD                           ALL TIMES    "1 1297  1 1298"                           head.obs.csv                                                                    
 NI1502-2                                 CONTINUOUS  HEAD                           ALL TIMES    "1 1147  1 1148"                           head.obs.csv                                                                    
 NI1503-2                                 CONTINUOUS  HEAD                           ALL TIMES    "1 1231  1 1232"                           head.obs.csv                                                                    
 NI1504-2                                 CONTINUOUS  HEAD                           ALL TIMES    "1 1310  1 1311"                           head.obs.csv                                                                    
 NI1505-1                                 CONTINUOUS  HEAD                           ALL TIMES    "1 1308  1 1309"                           head.obs.csv                                                                    
 NI1506-1                                 CONTINUOUS  HEAD                           ALL TIMES    "1 1387  1 1388"                           head.obs.csv                                                                    
 NI15-O1                                  CONTINUOUS  HEAD                           ALL TIMES    "1 2437  1 2438"                           head.obs.csv                                                                    
 NI15-O44                                 CONTINUOUS  HEAD                           ALL TIMES    "1 2251  1 2252"                           head.obs.csv                                                                    
 NI15-O46                                 CONTINUOUS  HEAD                           ALL TIMES    "1 1546  1 1547"                           head.obs.csv                                                                    
 NI15-O47                                 CONTINUOUS  HEAD                           ALL TIMES    "1 1639  1 1640"                           head.obs.csv                                                                    
 NI15-O48                                 CONTINUOUS  HEAD                           ALL TIMES    "1 947  1 948"                             head.obs.csv                                                                    
 NI1601-1                                 CONTINUOUS  HEAD                           ALL TIMES    "1 2255  1 2256"                           head.obs.csv                                                                    
 NI1602-1                                 CONTINUOUS  HEAD                           ALL TIMES    "1 2108  1 2109"                           head.obs.csv                                                                    
 NI1603-1                                 CONTINUOUS  HEAD                           ALL TIMES    "1 2040  1 2041"                           head.obs.csv                                                                    
 NI1605-1                                 CONTINUOUS  HEAD                           ALL TIMES    "1 2357  1 2358"                           head.obs.csv                                                                    
 NI1606-1                                 CONTINUOUS  HEAD                           ALL TIMES    "1 1887  1 1888"                           head.obs.csv                                                                    
 NI1607-1                                 CONTINUOUS  HEAD                           ALL TIMES    "1 2437  1 2438"                           head.obs.csv                                                                    
 NI1608-1                                 CONTINUOUS  HEAD                           ALL TIMES    "1 2516  1 2517"                           head.obs.csv                                                                    
 NI1609-2                                 CONTINUOUS  HEAD                           ALL TIMES    "1 2520  1 2521"                           head.obs.csv                                                                    
 NI1610-2                                 CONTINUOUS  HEAD                           ALL TIMES    "1 2518  1 2519"                           head.obs.csv                                                                    
 NI1611-1                                 CONTINUOUS  HEAD                           ALL TIMES    "1 2521  1 2522"                           head.obs.csv                                                                    
 NI1612-1                                 CONTINUOUS  HEAD                           ALL TIMES    "1 2340  1 2341"                           head.obs.csv                                                                    
 NI1613-1                                 CONTINUOUS  HEAD                           ALL TIMES    "1 2040  1 2041"                           head.obs.csv                                                                    
 NI1703-1                                 CONTINUOUS  HEAD                           ALL TIMES    "1 2439  1 2440"                           head.obs.csv                                                                    
 NI1704-1                                 CONTINUOUS  HEAD                           ALL TIMES    "1 1033  1 1034"                           head.obs.csv                                                                    
 NI1705-1                                 CONTINUOUS  HEAD                           ALL TIMES    "1 1198  1 1199"                           head.obs.csv                                                                    
 NI1712-1                                 CONTINUOUS  HEAD                           ALL TIMES    "1 2523  1 2524"                           head.obs.csv                                                                    
 NI1801-1                                 CONTINUOUS  HEAD                           ALL TIMES    "1 1113  1 1114"                           head.obs.csv                                                                    
 NI1802-1                                 CONTINUOUS  HEAD                           ALL TIMES    "1 1113  1 1114"                           head.obs.csv                                                                    
 NI1803-1                                 CONTINUOUS  HEAD                           ALL TIMES    "1 1197  1 1198"                           head.obs.csv                                                                    
 NI1804-1                                 CONTINUOUS  HEAD                           ALL TIMES    "1 1277  1 1278"                           head.obs.csv                                                                    
 B9-4                                     CONTINUOUS  HEAD                           ALL TIMES    "2 351  2 352"                             head.obs.csv                                                                    
 B10-4                                    CONTINUOUS  HEAD                           ALL TIMES    "2 1254  2 1255"                           head.obs.csv                                                                    
 B13-1                                    CONTINUOUS  HEAD                           ALL TIMES    "2 1475  2 1476"                           head.obs.csv                                                                    
 B14-1                                    CONTINUOUS  HEAD                           ALL TIMES    "2 1682  2 1683"                           head.obs.csv                                                                    
 B15-1                                    CONTINUOUS  HEAD                           ALL TIMES    "2 1391  2 1392"                           head.obs.csv                                                                    
 B20-1                                    CONTINUOUS  HEAD                           ALL TIMES    "2 1308  2 1309"                           head.obs.csv                                                                    
 B21-1                                    CONTINUOUS  HEAD                           ALL TIMES    "2 1474  2 1475"                           head.obs.csv                                                                    
 B2-2                                     CONTINUOUS  HEAD                           ALL TIMES    "2 1752  2 1753"                           head.obs.csv                                                                    
 B22-2                                    CONTINUOUS  HEAD                           ALL TIMES    "2 1473  2 1474"                           head.obs.csv                                                                    
 B26                                      CONTINUOUS  HEAD                           ALL TIMES    "2 1476  2 1477"                           head.obs.csv                                                                    
 B35                                      CONTINUOUS  HEAD                           ALL TIMES    "2 2260  2 2261"                           head.obs.csv                                                                    
 B36                                      CONTINUOUS  HEAD                           ALL TIMES    "2 2353  2 2354"                           head.obs.csv                                                                    
 B37                                      CONTINUOUS  HEAD                           ALL TIMES    "2 2355  2 2356"                           head.obs.csv                                                                    
 B8-1                                     CONTINUOUS  HEAD                           ALL TIMES    "2 2013  2 2014"                           head.obs.csv                                                                    
 KB4-4                                    CONTINUOUS  HEAD                           ALL TIMES    "2 1279  2 1280"                           head.obs.csv                                                                    
 NI1301-2                                 CONTINUOUS  HEAD                           ALL TIMES    "2 1475  2 1476"                           head.obs.csv                                                                    
 NI1302-2                                 CONTINUOUS  HEAD                           ALL TIMES    "2 1474  2 1475"                           head.obs.csv                                                                    
 NI1401-1                                 CONTINUOUS  HEAD                           ALL TIMES    "2 1568  2 1569"                           head.obs.csv                                                                    
 NI1402-1                                 CONTINUOUS  HEAD                           ALL TIMES    "2 1387  2 1388"                           head.obs.csv                                                                    
 NI1404-1                                 CONTINUOUS  HEAD                           ALL TIMES    "2 1475  2 1476"                           head.obs.csv                                                                    
 NI1407-2                                 CONTINUOUS  HEAD                           ALL TIMES    "2 1471  2 1472"                           head.obs.csv                                                                    
 NI1408-2                                 CONTINUOUS  HEAD                           ALL TIMES    "2 1384  2 1385"                           head.obs.csv                                                                    
 NI1409-2                                 CONTINUOUS  HEAD                           ALL TIMES    "2 1678  2 1679"                           head.obs.csv                                                                    
 NI1410-2                                 CONTINUOUS  HEAD                           ALL TIMES    "2 1680  2 1681"                           head.obs.csv                                                                    
 NI1411-2                                 CONTINUOUS  HEAD                           ALL TIMES    "2 1569  2 1570"                           head.obs.csv                                                                    
 NI1413-2                                 CONTINUOUS  HEAD                           ALL TIMES    "2 2450  2 2451"                           head.obs.csv                                                                    
 NI1501-2                                 CONTINUOUS  HEAD                           ALL TIMES    "2 1297  2 1298"                           head.obs.csv                                                                    
 NI1505-2                                 CONTINUOUS  HEAD                           ALL TIMES    "2 1308  2 1309"                           head.obs.csv                                                                    
 NI1506-2                                 CONTINUOUS  HEAD                           ALL TIMES    "2 1387  2 1388"                           head.obs.csv                                                                    
 NI1507-2                                 CONTINUOUS  HEAD                           ALL TIMES    "2 1226  2 1227"                           head.obs.csv                                                                    
 NI1601-2                                 CONTINUOUS  HEAD                           ALL TIMES    "2 2255  2 2256"                           head.obs.csv                                                                    
 NI1604-1                                 CONTINUOUS  HEAD                           ALL TIMES    "2 2354  2 2355"                           head.obs.csv                                                                    
 NI1606-2                                 CONTINUOUS  HEAD                           ALL TIMES    "2 1887  2 1888"                           head.obs.csv                                                                    
 NI1607-2                                 CONTINUOUS  HEAD                           ALL TIMES    "2 2437  2 2438"                           head.obs.csv                                                                    
 NI1608-2                                 CONTINUOUS  HEAD                           ALL TIMES    "2 2516  2 2517"                           head.obs.csv                                                                    
 NI1703-2                                 CONTINUOUS  HEAD                           ALL TIMES    "2 2439  2 2440"                           head.obs.csv                                                                    
 NI1706-1                                 CONTINUOUS  HEAD                           ALL TIMES    "2 1439  2 1440"                           head.obs.csv                                                                    
 NI1709-1                                 CONTINUOUS  HEAD                           ALL TIMES    "2 2266  2 2267"                           head.obs.csv                                                                    
 NI1801-3                                 CONTINUOUS  HEAD                           ALL TIMES    "2 1113  2 1114"                           head.obs.csv                                                                    
 NI1803-3                                 CONTINUOUS  HEAD                           ALL TIMES    "2 1197  2 1198"                           head.obs.csv                                                                    
 NI1804-3                                 CONTINUOUS  HEAD                           ALL TIMES    "2 1277  2 1278"                           head.obs.csv                                                                    
 B9-5                                     CONTINUOUS  HEAD                           ALL TIMES    "3 351  3 352"                             head.obs.csv                                                                    
 B10-5                                    CONTINUOUS  HEAD                           ALL TIMES    "3 1254  3 1255"                           head.obs.csv                                                                    
 B16-2                                    CONTINUOUS  HEAD                           ALL TIMES    "3 1981  3 1982"                           head.obs.csv                                                                    
 B19-4                                    CONTINUOUS  HEAD                           ALL TIMES    "3 2357  3 2358"                           head.obs.csv                                                                    
 B21-3                                    CONTINUOUS  HEAD                           ALL TIMES    "3 1474  3 1475"                           head.obs.csv                                                                    
 B22-4                                    CONTINUOUS  HEAD                           ALL TIMES    "3 1473  3 1474"                           head.obs.csv                                                                    
 B2-3                                     CONTINUOUS  HEAD                           ALL TIMES    "3 1752  3 1753"                           head.obs.csv                                                                    
 B30                                      CONTINUOUS  HEAD                           ALL TIMES    "3 1296  3 1297"                           head.obs.csv                                                                    
 B34                                      CONTINUOUS  HEAD                           ALL TIMES    "3 2259  3 2260"                           head.obs.csv                                                                    
 B4                                       CONTINUOUS  HEAD                           ALL TIMES    "3 994  3 995"                             head.obs.csv                                                                    
 B8-2                                     CONTINUOUS  HEAD                           ALL TIMES    "3 2013  3 2014"                           head.obs.csv                                                                    
 NI1301-3                                 CONTINUOUS  HEAD                           ALL TIMES    "3 1475  3 1476"                           head.obs.csv                                                                    
 NI1302-3                                 CONTINUOUS  HEAD                           ALL TIMES    "3 1474  3 1475"                           head.obs.csv                                                                    
 NI1401-2                                 CONTINUOUS  HEAD                           ALL TIMES    "3 1568  3 1569"                           head.obs.csv                                                                    
 NI1402-2                                 CONTINUOUS  HEAD                           ALL TIMES    "3 1387  3 1388"                           head.obs.csv                                                                    
 NI1403-2                                 CONTINUOUS  HEAD                           ALL TIMES    "3 2356  3 2357"                           head.obs.csv                                                                    
 NI1404-2                                 CONTINUOUS  HEAD                           ALL TIMES    "3 1475  3 1476"                           head.obs.csv                                                                    
 NI1405-2                                 CONTINUOUS  HEAD                           ALL TIMES    "3 2196  3 2197"                           head.obs.csv                                                                    
 NI1406-1                                 CONTINUOUS  HEAD                           ALL TIMES    "3 1474  3 1475"                           head.obs.csv                                                                    
 NI1407-3                                 CONTINUOUS  HEAD                           ALL TIMES    "3 1471  3 1472"                           head.obs.csv                                                                    
 NI1408-3                                 CONTINUOUS  HEAD                           ALL TIMES    "3 1384  3 1385"                           head.obs.csv                                                                    
 NI1409-3                                 CONTINUOUS  HEAD                           ALL TIMES    "3 1678  3 1679"                           head.obs.csv                                                                    
 NI1410-3                                 CONTINUOUS  HEAD                           ALL TIMES    "3 1680  3 1681"                           head.obs.csv                                                                    
 NI1411-3                                 CONTINUOUS  HEAD                           ALL TIMES    "3 1569  3 1570"                           head.obs.csv                                                                    
 NI1412-3                                 CONTINUOUS  HEAD                           ALL TIMES    "3 2355  3 2356"                           head.obs.csv                                                                    
 NI1413-3                                 CONTINUOUS  HEAD                           ALL TIMES    "3 2450  3 2451"                           head.obs.csv                                                                    
 NI1501-3                                 CONTINUOUS  HEAD                           ALL TIMES    "3 1297  3 1298"                           head.obs.csv                                                                    
 NI1502-3                                 CONTINUOUS  HEAD                           ALL TIMES    "3 1147  3 1148"                           head.obs.csv                                                                    
 NI1503-3                                 CONTINUOUS  HEAD                           ALL TIMES    "3 1231  3 1232"                           head.obs.csv                                                                    
 NI1504-3                                 CONTINUOUS  HEAD                           ALL TIMES    "3 1310  3 1311"                           head.obs.csv                                                                    
 NI1505-3                                 CONTINUOUS  HEAD                           ALL TIMES    "3 1308  3 1309"                           head.obs.csv                                                                    
 NI1506-3                                 CONTINUOUS  HEAD                           ALL TIMES    "3 1387  3 1388"                           head.obs.csv                                                                    
 NI1507-3                                 CONTINUOUS  HEAD                           ALL TIMES    "3 1226  3 1227"                           head.obs.csv                                                                    
 NI1601-3                                 CONTINUOUS  HEAD                           ALL TIMES    "3 2255  3 2256"                           head.obs.csv                                                                    
 NI1602-2                                 CONTINUOUS  HEAD                           ALL TIMES    "3 2108  3 2109"                           head.obs.csv                                                                    
 NI1603-2                                 CONTINUOUS  HEAD                           ALL TIMES    "3 2040  3 2041"                           head.obs.csv                                                                    
 NI1604-3                                 CONTINUOUS  HEAD                           ALL TIMES    "3 2354  3 2355"                           head.obs.csv                                                                    
 NI1605-3                                 CONTINUOUS  HEAD                           ALL TIMES    "3 2357  3 2358"                           head.obs.csv                                                                    
 NI1606-3                                 CONTINUOUS  HEAD                           ALL TIMES    "3 1887  3 1888"                           head.obs.csv                                                                    
 NI1607-3                                 CONTINUOUS  HEAD                           ALL TIMES    "3 2437  3 2438"                           head.obs.csv                                                                    
 NI1608-3                                 CONTINUOUS  HEAD                           ALL TIMES    "3 2516  3 2517"                           head.obs.csv                                                                    
 NI1609-3                                 CONTINUOUS  HEAD                           ALL TIMES    "3 2520  3 2521"                           head.obs.csv                                                                    
 NI1612-2                                 CONTINUOUS  HEAD                           ALL TIMES    "3 2340  3 2341"                           head.obs.csv                                                                    
 NI1701-1                                 CONTINUOUS  HEAD                           ALL TIMES    "3 2252  3 2253"                           head.obs.csv                                                                    
 NI1702-1                                 CONTINUOUS  HEAD                           ALL TIMES    "3 2184  3 2185"                           head.obs.csv                                                                    
 NI1704-2                                 CONTINUOUS  HEAD                           ALL TIMES    "3 1033  3 1034"                           head.obs.csv                                                                    
 NI1705-2                                 CONTINUOUS  HEAD                           ALL TIMES    "3 1198  3 1199"                           head.obs.csv                                                                    
 NI1706-2                                 CONTINUOUS  HEAD                           ALL TIMES    "3 1439  3 1440"                           head.obs.csv                                                                    
 NI1707-1                                 CONTINUOUS  HEAD                           ALL TIMES    "3 1356  3 1357"                           head.obs.csv                                                                    
 NI1708-1                                 CONTINUOUS  HEAD                           ALL TIMES    "3 2448  3 2449"                           head.obs.csv                                                                    
 NI1711-1                                 CONTINUOUS  HEAD                           ALL TIMES    "3 2530  3 2531"                           head.obs.csv                                                                    
 ----------------------------------------------------------------------------------------------------------------------------------------------------------------------------------------------------------------------------


    BINARY GRID INFORMATION WILL BE WRITTEN TO:
      UNIT NUMBER: 1019
      FILE NAME: C:\Users\nat12nho\Documents\Development\repos\hagfors_gwm\temp_flopy_lr\experimental.disv.grb

 OPENED C:\Users\nat12nho\Documents\Development\repos\hagfors_gwm\temp_flopy_lr\experimental.disv.grb
 FILE TYPE:DATA(BINARY)   UNIT 1019   STATUS:REPLACE             
 FORMAT:UNFORMATTED            ACCESS:STREAM              
 ACTION:READWRITE           

      THE LAST TIME STEP WILL BE PRINTED
      THE LAST TIME STEP WILL BE PRINTED
 # File generated by Flopy version 3.3.5 on 11/03/2021 at 09:22:54.

 PROCESSING OC OPTIONS

    BUDGET INFORMATION WILL BE WRITTEN TO:
      UNIT NUMBER: 1020
      FILE NAME: experimental.cbb

 OPENED experimental.cbb
 FILE TYPE:DATA(BINARY)   UNIT 1020   STATUS:REPLACE             
 FORMAT:UNFORMATTED            ACCESS:STREAM              
 ACTION:READWRITE           

    HEAD INFORMATION WILL BE WRITTEN TO:
      UNIT NUMBER: 1021
      FILE NAME: experimental.hds

 OPENED experimental.hds
 FILE TYPE:DATA(BINARY)   UNIT 1021   STATUS:REPLACE             
 FORMAT:UNFORMATTED            ACCESS:STREAM              
 ACTION:READWRITE           

 END OF OC OPTIONS

The observation utility is active for "SFR"
 # File generated by Flopy version 3.3.5 on 11/03/2021 at 09:22:55.

Processing observation options:

Text output number of digits of precision set to: 10
The PRINT_INPUT option has been specified.


 OBSERVATIONS READ FROM FILE "experimental.sfr.obs"
 ----------------------------------------------------------------------------------------------------------------------------------------------------------------------------------------------------------------------------
 NAME                                     TYPE                                       TIME         LOCATION DATA                              OUTPUT FILENAME                                                                 
 ----------------------------------------------------------------------------------------------------------------------------------------------------------------------------------------------------------------------------
 NI15-O44-STG                             CONTINUOUS  STAGE                          ALL TIMES    "107"                                      sfr.obs.csv                                                                     
 NI15-O46-STG                             CONTINUOUS  STAGE                          ALL TIMES    "141"                                      sfr.obs.csv                                                                     
 NI15-O47-STG                             CONTINUOUS  STAGE                          ALL TIMES    "156"                                      sfr.obs.csv                                                                     
 NI15-O48-STG                             CONTINUOUS  STAGE                          ALL TIMES    "195"                                      sfr.obs.csv                                                                     
 GAGE-1                                   CONTINUOUS  INFLOW                         ALL TIMES    "234"                                      sfr.obs.csv                                                                     
 ----------------------------------------------------------------------------------------------------------------------------------------------------------------------------------------------------------------------------



start timestep kper="1" kstp="1" mode="normal"


 BEGIN READING OUTPUT CONTROL FOR STRESS PERIOD 1
      ALL TIME STEPS WILL BE SAVED
      ALL TIME STEPS WILL BE SAVED
      THE FIRST TIME STEP WILL BE PRINTED
      THE LAST TIME STEP WILL BE PRINTED
      THE LAST TIME STEP WILL BE PRINTED

 END READING OUTPUT CONTROL FOR STRESS PERIOD 1


 PROCESSING STORAGE PERIOD DATA
 END PROCESSING STORAGE PERIOD DATA


 STRESS PERIOD 1 IS STEADY-STATE

 -----------------------------------------------------------------------------------------------------
  GHB NO.    LAYER  CELL2D       STAGE         CONDUCTANCE    BOUNDNAME                               
 -----------------------------------------------------------------------------------------------------
     1         1      830    142.500000       86.4000000      RED                                     
     2         1      913    142.500000       86.4000000      RED                                     
     3         1      996    142.500000       86.4000000      RED                                     
     4         1     1076    142.500000       86.4000000      RED                                     
     5         1     1156    142.500000       86.4000000      RED                                     
     6         1     1239    142.500000       86.4000000      RED                                     
     7         1     1319    142.500000       86.4000000      RED                                     
     8         1     1398    142.500000       86.4000000      RED                                     
     9         1     1485    142.500000       86.4000000      RED                                     
     10        1     1580    142.500000       86.4000000      RED                                     
     11        1     1692    142.500000       86.4000000      RED                                     
     12        1     1776    142.500000       86.4000000      RED                                     
     13        1     1853    142.500000       86.4000000      RED                                     
     14        1     1929    142.500000       86.4000000      RED                                     
     15        1     2004    142.500000       86.4000000      RED                                     
     16        1     2075    142.500000       86.4000000      RED                                     
     17        1     2145    142.500000       86.4000000      RED                                     
     18        1     2214    142.500000       86.4000000      RED                                     
     19        1     2309    142.500000       86.4000000      RED                                     
     20        1     2403    142.500000       86.4000000      RED                                     
     21        1     2487    142.500000       86.4000000      RED                                     
     22        1     2564    142.500000       86.4000000      RED                                     
     23        1     2565    142.500000       86.4000000      RED                                     
     24        1     2635    142.500000       86.4000000      RED                                     
     25        1     2704    142.500000       86.4000000      RED                                     
     26        1     2784    142.500000       86.4000000      RED                                     
     27        1      428    143.000000       86.4000000      ORANGERED                               
     28        1      504    143.000000       86.4000000      ORANGERED                               
     29        1      584    143.000000       86.4000000      ORANGERED                               
     30        1      665    143.000000       86.4000000      ORANGERED                               
     31        1      747    143.000000       86.4000000      ORANGERED                               
     32        1      312    137.500000       86.4000000      ORANGE                                  
     33        1      313    137.500000       86.4000000      ORANGE                                  
     34        1      314    137.500000       86.4000000      ORANGE                                  
     35        1      315    137.500000       86.4000000      ORANGE                                  
     36        1      316    137.500000       86.4000000      ORANGE                                  
     37        1      317    137.500000       86.4000000      ORANGE                                  
     38        1      318    137.500000       86.4000000      ORANGE                                  
     39        1      319    137.500000       86.4000000      ORANGE                                  
     40        1      320    137.500000       86.4000000      ORANGE                                  
     41        1      321    137.500000       86.4000000      ORANGE                                  
     42        1      322    137.500000       86.4000000      ORANGE                                  
     43        1      323    137.500000       86.4000000      ORANGE                                  
     44        1      324    137.500000       86.4000000      ORANGE                                  
     45        1      325    137.500000       86.4000000      ORANGE                                  
     46        1      326    137.500000       86.4000000      ORANGE                                  
     47        1      327    137.500000       86.4000000      ORANGE                                  
     48        1      328    137.500000       86.4000000      ORANGE                                  
     49        1      329    137.500000       86.4000000      ORANGE                                  
     50        1      330    137.500000       86.4000000      ORANGE                                  
     51        1      331    137.500000       86.4000000      ORANGE                                  
     52        1      332    137.500000       86.4000000      ORANGE                                  
     53        1      333    137.500000       86.4000000      ORANGE                                  
     54        1      334    137.500000       86.4000000      ORANGE                                  
     55        1      335    137.693893       86.4000000      ORANGE                                  
     56        1      336    137.912094       86.4000000      ORANGE                                  
     57        1      337    137.988297       86.4000000      ORANGE                                  
     58        1      338    137.979095       86.4000000      ORANGE                                  
     59        1      339    137.994705       86.4000000      ORANGE                                  
     60        1      340    138.170303       86.4000000      ORANGE                                  
     61        1      341    138.331497       86.4000000      ORANGE                                  
     62        1      342    138.308304       86.4000000      ORANGE                                  
     63        1      343    138.457901       86.4000000      ORANGE                                  
     64        1      344    138.635498       86.4000000      ORANGE                                  
     65        1      345    138.630798       86.4000000      ORANGE                                  
     66        1      346    138.478806       86.4000000      ORANGE                                  
     67        1      347    138.828003       86.4000000      ORANGE                                  
     68        1      51     135.500000       86.4000000      GOLD                                    
     69        1      84     135.500000       86.4000000      GOLD                                    
     70        1      116    135.500000       86.4000000      GOLD                                    
     71        1      150    135.500000       86.4000000      GOLD                                    
     72        1      186    135.500000       86.4000000      GOLD                                    
     73        1      224    135.500000       86.4000000      GOLD                                    
     74        1      264    135.500000       86.4000000      GOLD                                    
     75        1       1     134.500000       86.4000000      YELLOWGREEN                             
     76        1       2     134.500000       86.4000000      YELLOWGREEN                             
     77        1       3     134.500000       86.4000000      YELLOWGREEN                             
     78        1       4     134.500000       86.4000000      YELLOWGREEN                             
     79        1       5     134.500000       86.4000000      YELLOWGREEN                             
     80        1       6     134.500000       86.4000000      YELLOWGREEN                             
     81        1       9     134.500000       86.4000000      YELLOWGREEN                             
     82        1      10     134.500000       86.4000000      YELLOWGREEN                             
     83        1      11     134.500000       86.4000000      YELLOWGREEN                             
     84        1      12     134.500000       86.4000000      YELLOWGREEN                             
     85        1      13     134.500000       86.4000000      YELLOWGREEN                             
     86        1      14     134.500000       86.4000000      YELLOWGREEN                             
     87        1      15     134.500000       86.4000000      YELLOWGREEN                             
     88        1      16     134.500000       86.4000000      YELLOWGREEN                             
     89        1      17     134.500000       86.4000000      YELLOWGREEN                             
     90        1      18     134.500000       86.4000000      YELLOWGREEN                             
     91        1      19     134.500000       86.4000000      YELLOWGREEN                             
     92        1      20     134.500000       86.4000000      YELLOWGREEN                             
     93        1      21     134.500000       86.4000000      YELLOWGREEN                             
     94        1      22     134.500000       86.4000000      YELLOWGREEN                             
     95        1      23     134.500000       86.4000000      YELLOWGREEN                             
     96        1      52     133.600000       86.4000000      LIMEGREEN                               
     97        1      85     133.600000       86.4000000      LIMEGREEN                               
     98        1      117    133.600000       86.4000000      LIMEGREEN                               
     99        1      151    133.600000       86.4000000      LIMEGREEN                               
    100        1      187    133.600000       86.4000000      LIMEGREEN                               
    101        1      265    133.200000       86.4000000      AQUA                                    
    102        1      348    133.200000       86.4000000      AQUA                                    
    103        1      429    133.200000       86.4000000      AQUA                                    
    104        1      505    133.200000       86.4000000      AQUA                                    
    105        1      585    133.200000       86.4000000      AQUA                                    
    106        1      666    133.200000       86.4000000      AQUA                                    
    107        1      748    133.200000       86.4000000      AQUA                                    
    108        1      831    133.200000       86.4000000      AQUA                                    
    109        1      914    133.200000       86.4000000      AQUA                                    
    110        1      997    133.200000       86.4000000      AQUA                                    
    111        1     1077    133.200000       86.4000000      AQUA                                    
    112        1     1157    133.200000       86.4000000      AQUA                                    
    113        1     1240    133.200000       86.4000000      AQUA                                    
    114        1     1399    133.200000       86.4000000      DARKTURQUOISE                           
    115        1     1486    133.200000       86.4000000      DARKTURQUOISE                           
    116        1     1581    133.200000       86.4000000      DARKTURQUOISE                           
    117        1     1693    133.200000       86.4000000      DARKTURQUOISE                           
    118        1     1777    133.200000       86.4000000      DARKTURQUOISE                           
    119        1     1854    133.200000       86.4000000      DARKTURQUOISE                           
    120        1     1930    133.200000       86.4000000      DARKTURQUOISE                           
    121        1     2005    133.200000       86.4000000      DARKTURQUOISE                           
    122        1     2076    133.200000       86.4000000      DARKTURQUOISE                           
    123        1     2146    133.200000       86.4000000      DARKTURQUOISE                           
    124        1     2215    133.200000       86.4000000      DARKTURQUOISE                           
    125        1     2310    133.200000       86.4000000      DARKTURQUOISE                           
    126        1     2404    133.200000       86.4000000      DARKTURQUOISE                           
    127        1     2488    133.200000       86.4000000      DARKTURQUOISE                           
    128        1     2566    133.200000       86.4000000      DARKTURQUOISE                           
    129        1     2636    133.200000       86.4000000      DARKTURQUOISE                           
    130        1     2705    133.200000       86.4000000      DARKTURQUOISE                           
    131        1     2785    133.200000       86.4000000      DARKTURQUOISE                           
    132        1     2856    133.200000       86.4000000      DARKTURQUOISE                           
    133        1     2921    133.200000       86.4000000      DARKTURQUOISE                           
    134        1     2971    133.200000       86.4000000      DARKTURQUOISE                           
    135        1     3018    133.200000       86.4000000      DARKTURQUOISE                           
    136        1     3061    133.462006       86.4000000      DARKTURQUOISE                           
    137        1     3097    134.633896       86.4000000      DARKTURQUOISE                           
    138        1     3126    136.711899       86.4000000      ROYALBLUE                               
    139        1     3127    137.495697       86.4000000      ROYALBLUE                               
    140        1     3128    138.313507       86.4000000      ROYALBLUE                               
    141        1     3129    139.249405       86.4000000      ROYALBLUE                               
    142        1     3130    139.835693       86.4000000      ROYALBLUE                               
    143        1     3131    140.728104       86.4000000      ROYALBLUE                               
    144        1     3132    141.188797       86.4000000      ROYALBLUE                               
    145        1     3133    141.609802       86.4000000      ROYALBLUE                               
    146        1     3134    141.910904       86.4000000      ROYALBLUE                               
    147        1     3135    142.142197       86.4000000      ROYALBLUE                               
    148        1     3112    141.270401       86.4000000      BLUE                                    
    149        1     3125    142.113602       86.4000000      BLUE                                    
    150        1     3078    140.132797       86.4000000      BLUEVIOLET                              
    151        1     3079    139.932907       86.4000000      BLUEVIOLET                              
    152        1     3080    139.604294       86.4000000      BLUEVIOLET                              
    153        1     3081    139.418594       86.4000000      BLUEVIOLET                              
    154        1     3082    139.438400       86.4000000      BLUEVIOLET                              
    155        1     3083    139.939697       86.4000000      BLUEVIOLET                              
    156        1     3084    139.788803       86.4000000      BLUEVIOLET                              
    157        1     3085    139.730103       86.4000000      BLUEVIOLET                              
    158        1     3086    139.743195       86.4000000      BLUEVIOLET                              
    159        1     3087    139.697495       86.4000000      BLUEVIOLET                              
    160        1     3088    139.811005       86.4000000      BLUEVIOLET                              
    161        1     3089    139.843201       86.4000000      BLUEVIOLET                              
    162        1     3090    139.720398       86.4000000      BLUEVIOLET                              
    163        1     3091    139.802704       86.4000000      BLUEVIOLET                              
    164        1     3092    139.727707       86.4000000      BLUEVIOLET                              
    165        1     3093    139.958694       86.4000000      BLUEVIOLET                              
    166        1     3094    140.352707       86.4000000      BLUEVIOLET                              
    167        1     3095    140.726395       86.4000000      BLUEVIOLET                              
    168        1     3096    140.822693       86.4000000      BLUEVIOLET                              
    169        1     3055    141.222198       86.4000000      PURPLE                                  
    170        1     3056    142.104996       86.4000000      PURPLE                                  
    171        1     3057    142.760498       86.4000000      PURPLE                                  
    172        1     3058    143.357895       86.4000000      PURPLE                                  
    173        1     3059    143.709702       86.4000000      PURPLE                                  
    174        1     3060    144.099106       86.4000000      PURPLE                                  
    175        1     3015    143.393707       86.4000000      MEDIUMVIOLETRED                         
    176        1     3016    143.648804       86.4000000      MEDIUMVIOLETRED                         
    177        1     3017    143.819107       86.4000000      MEDIUMVIOLETRED                         
    178        1     2855    140.385696       86.4000000      CRIMSON                                 
    179        1     2920    141.427597       86.4000000      CRIMSON                                 
    180        1     2970    142.584702       86.4000000      CRIMSON                                 
 -----------------------------------------------------------------------------------------------------


 -------------------------------------------
  RCH NO.    LAYER  CELL2D      RECHARGE    
 -------------------------------------------
     1         1       7     5.479452050E-04
     2         1       8     5.479452050E-04
     3         1      24     5.479452050E-04
     4         1      25     5.479452050E-04
     5         1      26     5.479452050E-04
     6         1      27     5.479452050E-04
     7         1      28     5.479452050E-04
     8         1      29     5.479452050E-04
     9         1      30     5.479452050E-04
     10        1      31     5.479452050E-04
     11        1      32     5.479452050E-04
     12        1      33     5.479452050E-04
     13        1      34     5.479452050E-04
     14        1      35     5.479452050E-04
     15        1      36     5.479452050E-04
     16        1      37     5.479452050E-04
     17        1      38     5.479452050E-04
     18        1      39     5.479452050E-04
     19        1      40     5.479452050E-04
     20        1      41     5.479452050E-04
     21        1      42     5.479452050E-04
     22        1      43     5.479452050E-04
     23        1      44     5.479452050E-04
     24        1      45     5.479452050E-04
     25        1      46     5.479452050E-04
     26        1      47     5.479452050E-04
     27        1      48     5.479452050E-04
     28        1      49     5.479452050E-04
     29        1      50     5.479452050E-04
     30        1      53     5.479452050E-04
     31        1      54     5.479452050E-04
     32        1      55     5.479452050E-04
     33        1      56     5.479452050E-04
     34        1      57     5.479452050E-04
     35        1      58     5.479452050E-04
     36        1      59     5.479452050E-04
     37        1      60     5.479452050E-04
     38        1      61     5.479452050E-04
     39        1      62     5.479452050E-04
     40        1      63     5.479452050E-04
     41        1      64     5.479452050E-04
     42        1      65     5.479452050E-04
     43        1      66     5.479452050E-04
     44        1      67     5.479452050E-04
     45        1      68     5.479452050E-04
     46        1      69     5.479452050E-04
     47        1      70     5.479452050E-04
     48        1      71     5.479452050E-04
     49        1      72     5.479452050E-04
     50        1      73     5.479452050E-04
     51        1      74     5.479452050E-04
     52        1      75     5.479452050E-04
     53        1      76     5.479452050E-04
     54        1      77     5.479452050E-04
     55        1      78     5.479452050E-04
     56        1      79     5.479452050E-04
     57        1      80     5.479452050E-04
     58        1      81     5.479452050E-04
     59        1      82     5.479452050E-04
     60        1      83     5.479452050E-04
     61        1      86     5.479452050E-04
     62        1      87     5.479452050E-04
     63        1      88     5.479452050E-04
     64        1      89     5.479452050E-04
     65        1      90     5.479452050E-04
     66        1      91     5.479452050E-04
     67        1      92     5.479452050E-04
     68        1      93     5.479452050E-04
     69        1      94     5.479452050E-04
     70        1      95     5.479452050E-04
     71        1      96     5.479452050E-04
     72        1      97     5.479452050E-04
     73        1      98     5.479452050E-04
     74        1      99     5.479452050E-04
     75        1      100    5.479452050E-04
     76        1      101    5.479452050E-04
     77        1      102    5.479452050E-04
     78        1      103    5.479452050E-04
     79        1      104    5.479452050E-04
     80        1      105    5.479452050E-04
     81        1      106    5.479452050E-04
     82        1      107    5.479452050E-04
     83        1      108    5.479452050E-04
     84        1      109    5.479452050E-04
     85        1      110    5.479452050E-04
     86        1      111    5.479452050E-04
     87        1      112    5.479452050E-04
     88        1      113    5.479452050E-04
     89        1      114    5.479452050E-04
     90        1      115    5.479452050E-04
     91        1      118    5.479452050E-04
     92        1      119    5.479452050E-04
     93        1      120    5.479452050E-04
     94        1      121    5.479452050E-04
     95        1      122    5.479452050E-04
     96        1      123    5.479452050E-04
     97        1      124    5.479452050E-04
     98        1      125    5.479452050E-04
     99        1      126    5.479452050E-04
    100        1      127    5.479452050E-04
    101        1      128    5.479452050E-04
    102        1      129    5.479452050E-04
    103        1      130    5.479452050E-04
    104        1      131    5.479452050E-04
    105        1      132    5.479452050E-04
    106        1      133    5.479452050E-04
    107        1      134    5.479452050E-04
    108        1      135    5.479452050E-04
    109        1      136    5.479452050E-04
    110        1      137    5.479452050E-04
    111        1      138    5.479452050E-04
    112        1      139    5.479452050E-04
    113        1      140    5.479452050E-04
    114        1      141    5.479452050E-04
    115        1      142    5.479452050E-04
    116        1      143    5.479452050E-04
    117        1      144    5.479452050E-04
    118        1      145    5.479452050E-04
    119        1      146    5.479452050E-04
    120        1      147    5.479452050E-04
    121        1      148    5.479452050E-04
    122        1      149    5.479452050E-04
    123        1      152    5.479452050E-04
    124        1      153    5.479452050E-04
    125        1      154    5.479452050E-04
    126        1      155    5.479452050E-04
    127        1      156    5.479452050E-04
    128        1      157    5.479452050E-04
    129        1      158    5.479452050E-04
    130        1      159    5.479452050E-04
    131        1      160    5.479452050E-04
    132        1      161    5.479452050E-04
    133        1      162    5.479452050E-04
    134        1      163    5.479452050E-04
    135        1      164    5.479452050E-04
    136        1      165    5.479452050E-04
    137        1      166    5.479452050E-04
    138        1      167    5.479452050E-04
    139        1      168    5.479452050E-04
    140        1      169    5.479452050E-04
    141        1      170    5.479452050E-04
    142        1      171    5.479452050E-04
    143        1      172    5.479452050E-04
    144        1      173    5.479452050E-04
    145        1      174    5.479452050E-04
    146        1      175    5.479452050E-04
    147        1      176    5.479452050E-04
    148        1      177    5.479452050E-04
    149        1      178    5.479452050E-04
    150        1      179    5.479452050E-04
    151        1      180    5.479452050E-04
    152        1      181    5.479452050E-04
    153        1      182    5.479452050E-04
    154        1      183    5.479452050E-04
    155        1      184    5.479452050E-04
    156        1      185    5.479452050E-04
    157        1      188    5.479452050E-04
    158        1      189    5.479452050E-04
    159        1      190    5.479452050E-04
    160        1      191    5.479452050E-04
    161        1      192    5.479452050E-04
    162        1      193    5.479452050E-04
    163        1      194    5.479452050E-04
    164        1      195    5.479452050E-04
    165        1      196    5.479452050E-04
    166        1      197    5.479452050E-04
    167        1      198    5.479452050E-04
    168        1      199    5.479452050E-04
    169        1      200    5.479452050E-04
    170        1      201    5.479452050E-04
    171        1      202    5.479452050E-04
    172        1      203    5.479452050E-04
    173        1      204    5.479452050E-04
    174        1      205    5.479452050E-04
    175        1      206    5.479452050E-04
    176        1      207    5.479452050E-04
    177        1      208    5.479452050E-04
    178        1      209    5.479452050E-04
    179        1      210    5.479452050E-04
    180        1      211    5.479452050E-04
    181        1      212    5.479452050E-04
    182        1      213    5.479452050E-04
    183        1      214    5.479452050E-04
    184        1      215    5.479452050E-04
    185        1      216    5.479452050E-04
    186        1      217    5.479452050E-04
    187        1      218    5.479452050E-04
    188        1      219    5.479452050E-04
    189        1      220    5.479452050E-04
    190        1      221    5.479452050E-04
    191        1      222    5.479452050E-04
    192        1      223    5.479452050E-04
    193        1      225    5.479452050E-04
    194        1      226    5.479452050E-04
    195        1      227    5.479452050E-04
    196        1      228    5.479452050E-04
    197        1      229    5.479452050E-04
    198        1      230    5.479452050E-04
    199        1      231    5.479452050E-04
    200        1      232    5.479452050E-04
    201        1      233    5.479452050E-04
    202        1      234    5.479452050E-04
    203        1      235    5.479452050E-04
    204        1      236    5.479452050E-04
    205        1      237    5.479452050E-04
    206        1      238    5.479452050E-04
    207        1      239    5.479452050E-04
    208        1      240    5.479452050E-04
    209        1      241    5.479452050E-04
    210        1      242    5.479452050E-04
    211        1      243    5.479452050E-04
    212        1      244    5.479452050E-04
    213        1      245    5.479452050E-04
    214        1      246    5.479452050E-04
    215        1      247    5.479452050E-04
    216        1      248    5.479452050E-04
    217        1      249    5.479452050E-04
    218        1      250    5.479452050E-04
    219        1      251    5.479452050E-04
    220        1      252    5.479452050E-04
    221        1      253    5.479452050E-04
    222        1      254    5.479452050E-04
    223        1      255    5.479452050E-04
    224        1      256    5.479452050E-04
    225        1      257    5.479452050E-04
    226        1      258    5.479452050E-04
    227        1      259    5.479452050E-04
    228        1      260    5.479452050E-04
    229        1      261    5.479452050E-04
    230        1      262    5.479452050E-04
    231        1      263    5.479452050E-04
    232        1      266    5.479452050E-04
    233        1      267    5.479452050E-04
    234        1      268    5.479452050E-04
    235        1      269    5.479452050E-04
    236        1      270    5.479452050E-04
    237        1      271    5.479452050E-04
    238        1      272    5.479452050E-04
    239        1      273    5.479452050E-04
    240        1      274    5.479452050E-04
    241        1      275    5.479452050E-04
    242        1      276    5.479452050E-04
    243        1      277    5.479452050E-04
    244        1      278    5.479452050E-04
    245        1      279    5.479452050E-04
    246        1      280    5.479452050E-04
    247        1      281    5.479452050E-04
    248        1      282    5.479452050E-04
    249        1      283    5.479452050E-04
    250        1      284    5.479452050E-04
    251        1      285    5.479452050E-04
    252        1      286    5.479452050E-04
    253        1      287    5.479452050E-04
    254        1      288    5.479452050E-04
    255        1      289    5.479452050E-04
    256        1      290    5.479452050E-04
    257        1      291    5.479452050E-04
    258        1      292    5.479452050E-04
    259        1      293    5.479452050E-04
    260        1      294    5.479452050E-04
    261        1      295    5.479452050E-04
    262        1      296    5.479452050E-04
    263        1      297    5.479452050E-04
    264        1      298    5.479452050E-04
    265        1      299    5.479452050E-04
    266        1      300    5.479452050E-04
    267        1      301    5.479452050E-04
    268        1      302    5.479452050E-04
    269        1      303    5.479452050E-04
    270        1      304    5.479452050E-04
    271        1      305    5.479452050E-04
    272        1      306    5.479452050E-04
    273        1      307    5.479452050E-04
    274        1      308    5.479452050E-04
    275        1      309    5.479452050E-04
    276        1      310    5.479452050E-04
    277        1      311    5.479452050E-04
    278        1      349    5.479452050E-04
    279        1      350    5.479452050E-04
    280        1      351    5.479452050E-04
    281        1      352    5.479452050E-04
    282        1      353    5.479452050E-04
    283        1      354    5.479452050E-04
    284        1      355    5.479452050E-04
    285        1      356    5.479452050E-04
    286        1      357    5.479452050E-04
    287        1      358    5.479452050E-04
    288        1      359    5.479452050E-04
    289        1      360    5.479452050E-04
    290        1      361    5.479452050E-04
    291        1      362    5.479452050E-04
    292        1      363    5.479452050E-04
    293        1      364    5.479452050E-04
    294        1      365    5.479452050E-04
    295        1      366    5.479452050E-04
    296        1      367    5.479452050E-04
    297        1      368    5.479452050E-04
    298        1      369    5.479452050E-04
    299        1      370    5.479452050E-04
    300        1      371    5.479452050E-04
    301        1      372    5.479452050E-04
    302        1      373    5.479452050E-04
    303        1      374    5.479452050E-04
    304        1      375    5.479452050E-04
    305        1      376    5.479452050E-04
    306        1      377    5.479452050E-04
    307        1      378    5.479452050E-04
    308        1      379    5.479452050E-04
    309        1      380    5.479452050E-04
    310        1      381    5.479452050E-04
    311        1      382    5.479452050E-04
    312        1      383    5.479452050E-04
    313        1      384    5.479452050E-04
    314        1      385    5.479452050E-04
    315        1      386    5.479452050E-04
    316        1      387    5.479452050E-04
    317        1      388    5.479452050E-04
    318        1      389    5.479452050E-04
    319        1      390    5.479452050E-04
    320        1      391    5.479452050E-04
    321        1      392    5.479452050E-04
    322        1      393    5.479452050E-04
    323        1      394    5.479452050E-04
    324        1      395    5.479452050E-04
    325        1      396    5.479452050E-04
    326        1      397    5.479452050E-04
    327        1      398    5.479452050E-04
    328        1      399    5.479452050E-04
    329        1      400    5.479452050E-04
    330        1      401    5.479452050E-04
    331        1      402    5.479452050E-04
    332        1      403    5.479452050E-04
    333        1      404    5.479452050E-04
    334        1      405    5.479452050E-04
    335        1      406    5.479452050E-04
    336        1      407    5.479452050E-04
    337        1      408    5.479452050E-04
    338        1      409    5.479452050E-04
    339        1      410    5.479452050E-04
    340        1      411    5.479452050E-04
    341        1      412    5.479452050E-04
    342        1      413    5.479452050E-04
    343        1      414    5.479452050E-04
    344        1      415    5.479452050E-04
    345        1      416    5.479452050E-04
    346        1      417    5.479452050E-04
    347        1      418    5.479452050E-04
    348        1      419    5.479452050E-04
    349        1      420    5.479452050E-04
    350        1      421    5.479452050E-04
    351        1      422    5.479452050E-04
    352        1      423    5.479452050E-04
    353        1      424    5.479452050E-04
    354        1      425    5.479452050E-04
    355        1      426    5.479452050E-04
    356        1      427    5.479452050E-04
    357        1      430    5.479452050E-04
    358        1      431    5.479452050E-04
    359        1      432    5.479452050E-04
    360        1      433    5.479452050E-04
    361        1      434    5.479452050E-04
    362        1      435    5.479452050E-04
    363        1      436    5.479452050E-04
    364        1      437    5.479452050E-04
    365        1      438    5.479452050E-04
    366        1      439    5.479452050E-04
    367        1      440    5.479452050E-04
    368        1      441    5.479452050E-04
    369        1      442    5.479452050E-04
    370        1      443    5.479452050E-04
    371        1      444    5.479452050E-04
    372        1      445    5.479452050E-04
    373        1      446    5.479452050E-04
    374        1      447    5.479452050E-04
    375        1      448    5.479452050E-04
    376        1      449    5.479452050E-04
    377        1      450    5.479452050E-04
    378        1      451    5.479452050E-04
    379        1      452    5.479452050E-04
    380        1      453    5.479452050E-04
    381        1      454    5.479452050E-04
    382        1      455    5.479452050E-04
    383        1      456    5.479452050E-04
    384        1      457    5.479452050E-04
    385        1      458    5.479452050E-04
    386        1      459    5.479452050E-04
    387        1      460    5.479452050E-04
    388        1      461    5.479452050E-04
    389        1      462    5.479452050E-04
    390        1      463    5.479452050E-04
    391        1      464    5.479452050E-04
    392        1      465    5.479452050E-04
    393        1      466    5.479452050E-04
    394        1      467    5.479452050E-04
    395        1      468    5.479452050E-04
    396        1      469    5.479452050E-04
    397        1      470    5.479452050E-04
    398        1      471    5.479452050E-04
    399        1      472    5.479452050E-04
    400        1      473    5.479452050E-04
    401        1      474    5.479452050E-04
    402        1      475    5.479452050E-04
    403        1      476    5.479452050E-04
    404        1      477    5.479452050E-04
    405        1      478    5.479452050E-04
    406        1      479    5.479452050E-04
    407        1      480    5.479452050E-04
    408        1      481    5.479452050E-04
    409        1      482    5.479452050E-04
    410        1      483    5.479452050E-04
    411        1      484    5.479452050E-04
    412        1      485    5.479452050E-04
    413        1      486    5.479452050E-04
    414        1      487    5.479452050E-04
    415        1      488    5.479452050E-04
    416        1      489    5.479452050E-04
    417        1      490    5.479452050E-04
    418        1      491    5.479452050E-04
    419        1      492    5.479452050E-04
    420        1      493    5.479452050E-04
    421        1      494    5.479452050E-04
    422        1      495    5.479452050E-04
    423        1      496    5.479452050E-04
    424        1      497    5.479452050E-04
    425        1      498    5.479452050E-04
    426        1      499    5.479452050E-04
    427        1      500    5.479452050E-04
    428        1      501    5.479452050E-04
    429        1      502    5.479452050E-04
    430        1      503    5.479452050E-04
    431        1      506    5.479452050E-04
    432        1      507    5.479452050E-04
    433        1      508    5.479452050E-04
    434        1      509    5.479452050E-04
    435        1      510    5.479452050E-04
    436        1      511    5.479452050E-04
    437        1      512    5.479452050E-04
    438        1      513    5.479452050E-04
    439        1      514    5.479452050E-04
    440        1      515    5.479452050E-04
    441        1      516    5.479452050E-04
    442        1      517    5.479452050E-04
    443        1      518    5.479452050E-04
    444        1      519    5.479452050E-04
    445        1      520    5.479452050E-04
    446        1      521    5.479452050E-04
    447        1      522    5.479452050E-04
    448        1      523    5.479452050E-04
    449        1      524    5.479452050E-04
    450        1      525    5.479452050E-04
    451        1      526    5.479452050E-04
    452        1      527    5.479452050E-04
    453        1      528    5.479452050E-04
    454        1      529    5.479452050E-04
    455        1      530    5.479452050E-04
    456        1      531    5.479452050E-04
    457        1      532    5.479452050E-04
    458        1      533    5.479452050E-04
    459        1      534    5.479452050E-04
    460        1      535    5.479452050E-04
    461        1      536    5.479452050E-04
    462        1      537    5.479452050E-04
    463        1      538    5.479452050E-04
    464        1      539    5.479452050E-04
    465        1      540    5.479452050E-04
    466        1      541    5.479452050E-04
    467        1      542    5.479452050E-04
    468        1      543    5.479452050E-04
    469        1      544    5.479452050E-04
    470        1      545    5.479452050E-04
    471        1      546    5.479452050E-04
    472        1      547    5.479452050E-04
    473        1      548    5.479452050E-04
    474        1      549    5.479452050E-04
    475        1      550    5.479452050E-04
    476        1      551    5.479452050E-04
    477        1      552    5.479452050E-04
    478        1      553    5.479452050E-04
    479        1      554    5.479452050E-04
    480        1      555    5.479452050E-04
    481        1      556    5.479452050E-04
    482        1      557    5.479452050E-04
    483        1      558    5.479452050E-04
    484        1      559    5.479452050E-04
    485        1      560    5.479452050E-04
    486        1      561    5.479452050E-04
    487        1      562    5.479452050E-04
    488        1      563    5.479452050E-04
    489        1      564    5.479452050E-04
    490        1      565    5.479452050E-04
    491        1      566    5.479452050E-04
    492        1      567    5.479452050E-04
    493        1      568    5.479452050E-04
    494        1      569    5.479452050E-04
    495        1      570    5.479452050E-04
    496        1      571    5.479452050E-04
    497        1      572    5.479452050E-04
    498        1      573    5.479452050E-04
    499        1      574    5.479452050E-04
    500        1      575    5.479452050E-04
    501        1      576    5.479452050E-04
    502        1      577    5.479452050E-04
    503        1      578    5.479452050E-04
    504        1      579    5.479452050E-04
    505        1      580    5.479452050E-04
    506        1      581    5.479452050E-04
    507        1      582    5.479452050E-04
    508        1      583    5.479452050E-04
    509        1      586    5.479452050E-04
    510        1      587    5.479452050E-04
    511        1      588    5.479452050E-04
    512        1      589    5.479452050E-04
    513        1      590    5.479452050E-04
    514        1      591    5.479452050E-04
    515        1      592    5.479452050E-04
    516        1      593    5.479452050E-04
    517        1      594    5.479452050E-04
    518        1      595    5.479452050E-04
    519        1      596    5.479452050E-04
    520        1      597    5.479452050E-04
    521        1      598    5.479452050E-04
    522        1      599    5.479452050E-04
    523        1      600    5.479452050E-04
    524        1      601    5.479452050E-04
    525        1      602    5.479452050E-04
    526        1      603    5.479452050E-04
    527        1      604    5.479452050E-04
    528        1      605    5.479452050E-04
    529        1      606    5.479452050E-04
    530        1      607    5.479452050E-04
    531        1      608    5.479452050E-04
    532        1      609    5.479452050E-04
    533        1      610    5.479452050E-04
    534        1      611    5.479452050E-04
    535        1      612    5.479452050E-04
    536        1      613    5.479452050E-04
    537        1      614    5.479452050E-04
    538        1      615    5.479452050E-04
    539        1      616    5.479452050E-04
    540        1      617    5.479452050E-04
    541        1      618    5.479452050E-04
    542        1      619    5.479452050E-04
    543        1      620    5.479452050E-04
    544        1      621    5.479452050E-04
    545        1      622    5.479452050E-04
    546        1      623    5.479452050E-04
    547        1      624    5.479452050E-04
    548        1      625    5.479452050E-04
    549        1      626    5.479452050E-04
    550        1      627    5.479452050E-04
    551        1      628    5.479452050E-04
    552        1      629    5.479452050E-04
    553        1      630    5.479452050E-04
    554        1      631    5.479452050E-04
    555        1      632    5.479452050E-04
    556        1      633    5.479452050E-04
    557        1      634    5.479452050E-04
    558        1      635    5.479452050E-04
    559        1      636    5.479452050E-04
    560        1      637    5.479452050E-04
    561        1      638    5.479452050E-04
    562        1      639    5.479452050E-04
    563        1      640    5.479452050E-04
    564        1      641    5.479452050E-04
    565        1      642    5.479452050E-04
    566        1      643    5.479452050E-04
    567        1      644    5.479452050E-04
    568        1      645    5.479452050E-04
    569        1      646    5.479452050E-04
    570        1      647    5.479452050E-04
    571        1      648    5.479452050E-04
    572        1      649    5.479452050E-04
    573        1      650    5.479452050E-04
    574        1      651    5.479452050E-04
    575        1      652    5.479452050E-04
    576        1      653    5.479452050E-04
    577        1      654    5.479452050E-04
    578        1      655    5.479452050E-04
    579        1      656    5.479452050E-04
    580        1      657    5.479452050E-04
    581        1      658    5.479452050E-04
    582        1      659    5.479452050E-04
    583        1      660    5.479452050E-04
    584        1      661    5.479452050E-04
    585        1      662    5.479452050E-04
    586        1      663    5.479452050E-04
    587        1      664    5.479452050E-04
    588        1      667    5.479452050E-04
    589        1      668    5.479452050E-04
    590        1      669    5.479452050E-04
    591        1      670    5.479452050E-04
    592        1      671    5.479452050E-04
    593        1      672    5.479452050E-04
    594        1      673    5.479452050E-04
    595        1      674    5.479452050E-04
    596        1      675    5.479452050E-04
    597        1      676    5.479452050E-04
    598        1      677    5.479452050E-04
    599        1      678    5.479452050E-04
    600        1      679    5.479452050E-04
    601        1      680    5.479452050E-04
    602        1      681    5.479452050E-04
    603        1      682    5.479452050E-04
    604        1      683    5.479452050E-04
    605        1      684    5.479452050E-04
    606        1      685    5.479452050E-04
    607        1      686    5.479452050E-04
    608        1      687    5.479452050E-04
    609        1      688    5.479452050E-04
    610        1      689    5.479452050E-04
    611        1      690    5.479452050E-04
    612        1      691    5.479452050E-04
    613        1      692    5.479452050E-04
    614        1      693    5.479452050E-04
    615        1      694    5.479452050E-04
    616        1      695    5.479452050E-04
    617        1      696    5.479452050E-04
    618        1      697    5.479452050E-04
    619        1      698    5.479452050E-04
    620        1      699    5.479452050E-04
    621        1      700    5.479452050E-04
    622        1      701    5.479452050E-04
    623        1      702    5.479452050E-04
    624        1      703    5.479452050E-04
    625        1      704    5.479452050E-04
    626        1      705    5.479452050E-04
    627        1      706    5.479452050E-04
    628        1      707    5.479452050E-04
    629        1      708    5.479452050E-04
    630        1      709    5.479452050E-04
    631        1      710    5.479452050E-04
    632        1      711    5.479452050E-04
    633        1      712    5.479452050E-04
    634        1      713    5.479452050E-04
    635        1      714    5.479452050E-04
    636        1      715    5.479452050E-04
    637        1      716    5.479452050E-04
    638        1      717    5.479452050E-04
    639        1      718    5.479452050E-04
    640        1      719    5.479452050E-04
    641        1      720    5.479452050E-04
    642        1      721    5.479452050E-04
    643        1      722    5.479452050E-04
    644        1      723    5.479452050E-04
    645        1      724    5.479452050E-04
    646        1      725    5.479452050E-04
    647        1      726    5.479452050E-04
    648        1      727    5.479452050E-04
    649        1      728    5.479452050E-04
    650        1      729    5.479452050E-04
    651        1      730    5.479452050E-04
    652        1      731    5.479452050E-04
    653        1      732    5.479452050E-04
    654        1      733    5.479452050E-04
    655        1      734    5.479452050E-04
    656        1      735    5.479452050E-04
    657        1      736    5.479452050E-04
    658        1      737    5.479452050E-04
    659        1      738    5.479452050E-04
    660        1      739    5.479452050E-04
    661        1      740    5.479452050E-04
    662        1      741    5.479452050E-04
    663        1      742    5.479452050E-04
    664        1      743    5.479452050E-04
    665        1      744    5.479452050E-04
    666        1      745    5.479452050E-04
    667        1      746    5.479452050E-04
    668        1      749    5.479452050E-04
    669        1      750    5.479452050E-04
    670        1      751    5.479452050E-04
    671        1      752    5.479452050E-04
    672        1      753    5.479452050E-04
    673        1      754    5.479452050E-04
    674        1      755    5.479452050E-04
    675        1      756    5.479452050E-04
    676        1      757    5.479452050E-04
    677        1      758    5.479452050E-04
    678        1      759    5.479452050E-04
    679        1      760    5.479452050E-04
    680        1      761    5.479452050E-04
    681        1      762    5.479452050E-04
    682        1      763    5.479452050E-04
    683        1      764    5.479452050E-04
    684        1      765    5.479452050E-04
    685        1      766    5.479452050E-04
    686        1      767    5.479452050E-04
    687        1      768    5.479452050E-04
    688        1      769    5.479452050E-04
    689        1      770    5.479452050E-04
    690        1      771    5.479452050E-04
    691        1      772    5.479452050E-04
    692        1      773    5.479452050E-04
    693        1      774    5.479452050E-04
    694        1      775    5.479452050E-04
    695        1      776    5.479452050E-04
    696        1      777    5.479452050E-04
    697        1      778    5.479452050E-04
    698        1      779    5.479452050E-04
    699        1      780    5.479452050E-04
    700        1      781    5.479452050E-04
    701        1      782    5.479452050E-04
    702        1      783    5.479452050E-04
    703        1      784    5.479452050E-04
    704        1      785    5.479452050E-04
    705        1      786    5.479452050E-04
    706        1      787    5.479452050E-04
    707        1      788    5.479452050E-04
    708        1      789    5.479452050E-04
    709        1      790    5.479452050E-04
    710        1      791    5.479452050E-04
    711        1      792    5.479452050E-04
    712        1      793    5.479452050E-04
    713        1      794    5.479452050E-04
    714        1      795    5.479452050E-04
    715        1      796    5.479452050E-04
    716        1      797    5.479452050E-04
    717        1      798    5.479452050E-04
    718        1      799    5.479452050E-04
    719        1      800    5.479452050E-04
    720        1      801    5.479452050E-04
    721        1      802    5.479452050E-04
    722        1      803    5.479452050E-04
    723        1      804    5.479452050E-04
    724        1      805    5.479452050E-04
    725        1      806    5.479452050E-04
    726        1      807    5.479452050E-04
    727        1      808    5.479452050E-04
    728        1      809    5.479452050E-04
    729        1      810    5.479452050E-04
    730        1      811    5.479452050E-04
    731        1      812    5.479452050E-04
    732        1      813    5.479452050E-04
    733        1      814    5.479452050E-04
    734        1      815    5.479452050E-04
    735        1      816    5.479452050E-04
    736        1      817    5.479452050E-04
    737        1      818    5.479452050E-04
    738        1      819    5.479452050E-04
    739        1      820    5.479452050E-04
    740        1      821    5.479452050E-04
    741        1      822    5.479452050E-04
    742        1      823    5.479452050E-04
    743        1      824    5.479452050E-04
    744        1      825    5.479452050E-04
    745        1      826    5.479452050E-04
    746        1      827    5.479452050E-04
    747        1      828    5.479452050E-04
    748        1      829    5.479452050E-04
    749        1      832    5.479452050E-04
    750        1      833    5.479452050E-04
    751        1      834    5.479452050E-04
    752        1      835    5.479452050E-04
    753        1      836    5.479452050E-04
    754        1      837    5.479452050E-04
    755        1      838    5.479452050E-04
    756        1      839    5.479452050E-04
    757        1      840    5.479452050E-04
    758        1      841    5.479452050E-04
    759        1      842    5.479452050E-04
    760        1      843    5.479452050E-04
    761        1      844    5.479452050E-04
    762        1      845    5.479452050E-04
    763        1      846    5.479452050E-04
    764        1      847    5.479452050E-04
    765        1      848    5.479452050E-04
    766        1      849    5.479452050E-04
    767        1      850    5.479452050E-04
    768        1      851    5.479452050E-04
    769        1      852    5.479452050E-04
    770        1      853    5.479452050E-04
    771        1      854    5.479452050E-04
    772        1      855    5.479452050E-04
    773        1      856    5.479452050E-04
    774        1      857    5.479452050E-04
    775        1      858    5.479452050E-04
    776        1      859    5.479452050E-04
    777        1      860    5.479452050E-04
    778        1      861    5.479452050E-04
    779        1      862    5.479452050E-04
    780        1      863    5.479452050E-04
    781        1      864    5.479452050E-04
    782        1      865    5.479452050E-04
    783        1      866    5.479452050E-04
    784        1      867    5.479452050E-04
    785        1      868    5.479452050E-04
    786        1      869    5.479452050E-04
    787        1      870    5.479452050E-04
    788        1      871    5.479452050E-04
    789        1      872    5.479452050E-04
    790        1      873    5.479452050E-04
    791        1      874    5.479452050E-04
    792        1      875    5.479452050E-04
    793        1      876    5.479452050E-04
    794        1      877    5.479452050E-04
    795        1      878    5.479452050E-04
    796        1      879    5.479452050E-04
    797        1      880    5.479452050E-04
    798        1      881    5.479452050E-04
    799        1      882    5.479452050E-04
    800        1      883    5.479452050E-04
    801        1      884    5.479452050E-04
    802        1      885    5.479452050E-04
    803        1      886    5.479452050E-04
    804        1      887    5.479452050E-04
    805        1      888    5.479452050E-04
    806        1      889    5.479452050E-04
    807        1      890    5.479452050E-04
    808        1      891    5.479452050E-04
    809        1      892    5.479452050E-04
    810        1      893    5.479452050E-04
    811        1      894    5.479452050E-04
    812        1      895    5.479452050E-04
    813        1      896    5.479452050E-04
    814        1      897    5.479452050E-04
    815        1      898    5.479452050E-04
    816        1      899    5.479452050E-04
    817        1      900    5.479452050E-04
    818        1      901    5.479452050E-04
    819        1      902    5.479452050E-04
    820        1      903    5.479452050E-04
    821        1      904    5.479452050E-04
    822        1      905    5.479452050E-04
    823        1      906    5.479452050E-04
    824        1      907    5.479452050E-04
    825        1      908    5.479452050E-04
    826        1      909    5.479452050E-04
    827        1      910    5.479452050E-04
    828        1      911    5.479452050E-04
    829        1      912    5.479452050E-04
    830        1      915    5.479452050E-04
    831        1      916    5.479452050E-04
    832        1      917    5.479452050E-04
    833        1      918    5.479452050E-04
    834        1      919    5.479452050E-04
    835        1      920    5.479452050E-04
    836        1      921    5.479452050E-04
    837        1      922    5.479452050E-04
    838        1      923    5.479452050E-04
    839        1      924    5.479452050E-04
    840        1      925    5.479452050E-04
    841        1      926    5.479452050E-04
    842        1      927    5.479452050E-04
    843        1      928    5.479452050E-04
    844        1      929    5.479452050E-04
    845        1      930    5.479452050E-04
    846        1      931    5.479452050E-04
    847        1      932    5.479452050E-04
    848        1      933    5.479452050E-04
    849        1      934    5.479452050E-04
    850        1      935    5.479452050E-04
    851        1      936    5.479452050E-04
    852        1      937    5.479452050E-04
    853        1      938    5.479452050E-04
    854        1      939    5.479452050E-04
    855        1      940    5.479452050E-04
    856        1      941    5.479452050E-04
    857        1      942    5.479452050E-04
    858        1      943    5.479452050E-04
    859        1      944    5.479452050E-04
    860        1      945    5.479452050E-04
    861        1      946    5.479452050E-04
    862        1      947    5.479452050E-04
    863        1      948    5.479452050E-04
    864        1      949    5.479452050E-04
    865        1      950    5.479452050E-04
    866        1      951    5.479452050E-04
    867        1      952    5.479452050E-04
    868        1      953    5.479452050E-04
    869        1      954    5.479452050E-04
    870        1      955    5.479452050E-04
    871        1      956    5.479452050E-04
    872        1      957    5.479452050E-04
    873        1      958    5.479452050E-04
    874        1      959    5.479452050E-04
    875        1      960    5.479452050E-04
    876        1      961    5.479452050E-04
    877        1      962    5.479452050E-04
    878        1      963    5.479452050E-04
    879        1      964    5.479452050E-04
    880        1      965    5.479452050E-04
    881        1      966    5.479452050E-04
    882        1      967    5.479452050E-04
    883        1      968    5.479452050E-04
    884        1      969    5.479452050E-04
    885        1      970    5.479452050E-04
    886        1      971    5.479452050E-04
    887        1      972    5.479452050E-04
    888        1      973    5.479452050E-04
    889        1      974    5.479452050E-04
    890        1      975    5.479452050E-04
    891        1      976    5.479452050E-04
    892        1      977    5.479452050E-04
    893        1      978    5.479452050E-04
    894        1      979    5.479452050E-04
    895        1      980    5.479452050E-04
    896        1      981    5.479452050E-04
    897        1      982    5.479452050E-04
    898        1      983    5.479452050E-04
    899        1      984    5.479452050E-04
    900        1      985    5.479452050E-04
    901        1      986    5.479452050E-04
    902        1      987    5.479452050E-04
    903        1      988    5.479452050E-04
    904        1      989    5.479452050E-04
    905        1      990    5.479452050E-04
    906        1      991    5.479452050E-04
    907        1      992    5.479452050E-04
    908        1      993    5.479452050E-04
    909        1      994    5.479452050E-04
    910        1      995    5.479452050E-04
    911        1      998    5.479452050E-04
    912        1      999    5.479452050E-04
    913        1     1000    5.479452050E-04
    914        1     1001    5.479452050E-04
    915        1     1002    5.479452050E-04
    916        1     1003    5.479452050E-04
    917        1     1004    5.479452050E-04
    918        1     1005    5.479452050E-04
    919        1     1006    5.479452050E-04
    920        1     1007    5.479452050E-04
    921        1     1008    5.479452050E-04
    922        1     1009    5.479452050E-04
    923        1     1010    5.479452050E-04
    924        1     1011    5.479452050E-04
    925        1     1012    5.479452050E-04
    926        1     1013    5.479452050E-04
    927        1     1014    5.479452050E-04
    928        1     1015    5.479452050E-04
    929        1     1016    5.479452050E-04
    930        1     1017    5.479452050E-04
    931        1     1018    5.479452050E-04
    932        1     1019    5.479452050E-04
    933        1     1020    5.479452050E-04
    934        1     1021    5.479452050E-04
    935        1     1022    5.479452050E-04
    936        1     1023    5.479452050E-04
    937        1     1024    5.479452050E-04
    938        1     1025    5.479452050E-04
    939        1     1026    5.479452050E-04
    940        1     1027    5.479452050E-04
    941        1     1028    5.479452050E-04
    942        1     1029    5.479452050E-04
    943        1     1030    5.479452050E-04
    944        1     1031    5.479452050E-04
    945        1     1032    5.479452050E-04
    946        1     1033    5.479452050E-04
    947        1     1034    5.479452050E-04
    948        1     1035    5.479452050E-04
    949        1     1036    5.479452050E-04
    950        1     1037    5.479452050E-04
    951        1     1038    5.479452050E-04
    952        1     1039    5.479452050E-04
    953        1     1040    5.479452050E-04
    954        1     1041    5.479452050E-04
    955        1     1042    5.479452050E-04
    956        1     1043    5.479452050E-04
    957        1     1044    5.479452050E-04
    958        1     1045    5.479452050E-04
    959        1     1046    5.479452050E-04
    960        1     1047    5.479452050E-04
    961        1     1048    5.479452050E-04
    962        1     1049    5.479452050E-04
    963        1     1050    5.479452050E-04
    964        1     1051    5.479452050E-04
    965        1     1052    5.479452050E-04
    966        1     1053    5.479452050E-04
    967        1     1054    5.479452050E-04
    968        1     1055    5.479452050E-04
    969        1     1056    5.479452050E-04
    970        1     1057    5.479452050E-04
    971        1     1058    5.479452050E-04
    972        1     1059    5.479452050E-04
    973        1     1060    5.479452050E-04
    974        1     1061    5.479452050E-04
    975        1     1062    5.479452050E-04
    976        1     1063    5.479452050E-04
    977        1     1064    5.479452050E-04
    978        1     1065    5.479452050E-04
    979        1     1066    5.479452050E-04
    980        1     1067    5.479452050E-04
    981        1     1068    5.479452050E-04
    982        1     1069    5.479452050E-04
    983        1     1070    5.479452050E-04
    984        1     1071    5.479452050E-04
    985        1     1072    5.479452050E-04
    986        1     1073    5.479452050E-04
    987        1     1074    5.479452050E-04
    988        1     1075    5.479452050E-04
    989        1     1078    5.479452050E-04
    990        1     1079    5.479452050E-04
    991        1     1080    5.479452050E-04
    992        1     1081    5.479452050E-04
    993        1     1082    5.479452050E-04
    994        1     1083    5.479452050E-04
    995        1     1084    5.479452050E-04
    996        1     1085    5.479452050E-04
    997        1     1086    5.479452050E-04
    998        1     1087    5.479452050E-04
    999        1     1088    5.479452050E-04
    1000       1     1089    5.479452050E-04
    1001       1     1090    5.479452050E-04
    1002       1     1091    5.479452050E-04
    1003       1     1092    5.479452050E-04
    1004       1     1093    5.479452050E-04
    1005       1     1094    5.479452050E-04
    1006       1     1095    5.479452050E-04
    1007       1     1096    5.479452050E-04
    1008       1     1097    5.479452050E-04
    1009       1     1098    5.479452050E-04
    1010       1     1099    5.479452050E-04
    1011       1     1100    5.479452050E-04
    1012       1     1101    5.479452050E-04
    1013       1     1102    5.479452050E-04
    1014       1     1103    5.479452050E-04
    1015       1     1104    5.479452050E-04
    1016       1     1105    5.479452050E-04
    1017       1     1106    5.479452050E-04
    1018       1     1107    5.479452050E-04
    1019       1     1108    5.479452050E-04
    1020       1     1109    5.479452050E-04
    1021       1     1110    5.479452050E-04
    1022       1     1111    5.479452050E-04
    1023       1     1112    5.479452050E-04
    1024       1     1113    5.479452050E-04
    1025       1     1114    5.479452050E-04
    1026       1     1115    5.479452050E-04
    1027       1     1116    5.479452050E-04
    1028       1     1117    5.479452050E-04
    1029       1     1118    5.479452050E-04
    1030       1     1119    5.479452050E-04
    1031       1     1120    5.479452050E-04
    1032       1     1121    5.479452050E-04
    1033       1     1122    5.479452050E-04
    1034       1     1123    5.479452050E-04
    1035       1     1124    5.479452050E-04
    1036       1     1125    5.479452050E-04
    1037       1     1126    5.479452050E-04
    1038       1     1127    5.479452050E-04
    1039       1     1128    5.479452050E-04
    1040       1     1129    5.479452050E-04
    1041       1     1130    5.479452050E-04
    1042       1     1131    5.479452050E-04
    1043       1     1132    5.479452050E-04
    1044       1     1133    5.479452050E-04
    1045       1     1134    5.479452050E-04
    1046       1     1135    5.479452050E-04
    1047       1     1136    5.479452050E-04
    1048       1     1137    5.479452050E-04
    1049       1     1138    5.479452050E-04
    1050       1     1139    5.479452050E-04
    1051       1     1140    5.479452050E-04
    1052       1     1141    5.479452050E-04
    1053       1     1142    5.479452050E-04
    1054       1     1143    5.479452050E-04
    1055       1     1144    5.479452050E-04
    1056       1     1145    5.479452050E-04
    1057       1     1146    5.479452050E-04
    1058       1     1147    5.479452050E-04
    1059       1     1148    5.479452050E-04
    1060       1     1149    5.479452050E-04
    1061       1     1150    5.479452050E-04
    1062       1     1151    5.479452050E-04
    1063       1     1152    5.479452050E-04
    1064       1     1153    5.479452050E-04
    1065       1     1154    5.479452050E-04
    1066       1     1155    5.479452050E-04
    1067       1     1158    5.479452050E-04
    1068       1     1159    5.479452050E-04
    1069       1     1160    5.479452050E-04
    1070       1     1161    5.479452050E-04
    1071       1     1162    5.479452050E-04
    1072       1     1163    5.479452050E-04
    1073       1     1164    5.479452050E-04
    1074       1     1165    5.479452050E-04
    1075       1     1166    5.479452050E-04
    1076       1     1167    5.479452050E-04
    1077       1     1168    5.479452050E-04
    1078       1     1169    5.479452050E-04
    1079       1     1170    5.479452050E-04
    1080       1     1171    5.479452050E-04
    1081       1     1172    5.479452050E-04
    1082       1     1173    5.479452050E-04
    1083       1     1174    5.479452050E-04
    1084       1     1175    5.479452050E-04
    1085       1     1176    5.479452050E-04
    1086       1     1177    5.479452050E-04
    1087       1     1178    5.479452050E-04
    1088       1     1179    5.479452050E-04
    1089       1     1180    5.479452050E-04
    1090       1     1181    5.479452050E-04
    1091       1     1182    5.479452050E-04
    1092       1     1183    5.479452050E-04
    1093       1     1184    5.479452050E-04
    1094       1     1185    5.479452050E-04
    1095       1     1186    5.479452050E-04
    1096       1     1187    5.479452050E-04
    1097       1     1188    5.479452050E-04
    1098       1     1189    5.479452050E-04
    1099       1     1190    5.479452050E-04
    1100       1     1191    5.479452050E-04
    1101       1     1192    5.479452050E-04
    1102       1     1193    5.479452050E-04
    1103       1     1194    5.479452050E-04
    1104       1     1195    5.479452050E-04
    1105       1     1196    5.479452050E-04
    1106       1     1197    5.479452050E-04
    1107       1     1198    5.479452050E-04
    1108       1     1199    5.479452050E-04
    1109       1     1200    5.479452050E-04
    1110       1     1201    5.479452050E-04
    1111       1     1202    5.479452050E-04
    1112       1     1203    5.479452050E-04
    1113       1     1204    5.479452050E-04
    1114       1     1205    5.479452050E-04
    1115       1     1206    5.479452050E-04
    1116       1     1207    5.479452050E-04
    1117       1     1208    5.479452050E-04
    1118       1     1209    5.479452050E-04
    1119       1     1210    5.479452050E-04
    1120       1     1211    5.479452050E-04
    1121       1     1212    5.479452050E-04
    1122       1     1213    5.479452050E-04
    1123       1     1214    5.479452050E-04
    1124       1     1215    5.479452050E-04
    1125       1     1216    5.479452050E-04
    1126       1     1217    5.479452050E-04
    1127       1     1218    5.479452050E-04
    1128       1     1219    5.479452050E-04
    1129       1     1220    5.479452050E-04
    1130       1     1221    5.479452050E-04
    1131       1     1222    5.479452050E-04
    1132       1     1223    5.479452050E-04
    1133       1     1224    5.479452050E-04
    1134       1     1225    5.479452050E-04
    1135       1     1226    5.479452050E-04
    1136       1     1227    5.479452050E-04
    1137       1     1228    5.479452050E-04
    1138       1     1229    5.479452050E-04
    1139       1     1230    5.479452050E-04
    1140       1     1231    5.479452050E-04
    1141       1     1232    5.479452050E-04
    1142       1     1233    5.479452050E-04
    1143       1     1234    5.479452050E-04
    1144       1     1235    5.479452050E-04
    1145       1     1236    5.479452050E-04
    1146       1     1237    5.479452050E-04
    1147       1     1238    5.479452050E-04
    1148       1     1241    5.479452050E-04
    1149       1     1242    5.479452050E-04
    1150       1     1243    5.479452050E-04
    1151       1     1244    5.479452050E-04
    1152       1     1245    5.479452050E-04
    1153       1     1246    5.479452050E-04
    1154       1     1247    5.479452050E-04
    1155       1     1248    5.479452050E-04
    1156       1     1249    5.479452050E-04
    1157       1     1250    5.479452050E-04
    1158       1     1251    5.479452050E-04
    1159       1     1252    5.479452050E-04
    1160       1     1253    5.479452050E-04
    1161       1     1254    5.479452050E-04
    1162       1     1255    5.479452050E-04
    1163       1     1256    5.479452050E-04
    1164       1     1257    5.479452050E-04
    1165       1     1258    5.479452050E-04
    1166       1     1259    5.479452050E-04
    1167       1     1260    5.479452050E-04
    1168       1     1261    5.479452050E-04
    1169       1     1262    5.479452050E-04
    1170       1     1263    5.479452050E-04
    1171       1     1264    5.479452050E-04
    1172       1     1265    5.479452050E-04
    1173       1     1266    5.479452050E-04
    1174       1     1267    5.479452050E-04
    1175       1     1268    5.479452050E-04
    1176       1     1269    5.479452050E-04
    1177       1     1270    5.479452050E-04
    1178       1     1271    5.479452050E-04
    1179       1     1272    5.479452050E-04
    1180       1     1273    5.479452050E-04
    1181       1     1274    5.479452050E-04
    1182       1     1275    5.479452050E-04
    1183       1     1276    5.479452050E-04
    1184       1     1277    5.479452050E-04
    1185       1     1278    5.479452050E-04
    1186       1     1279    5.479452050E-04
    1187       1     1280    5.479452050E-04
    1188       1     1281    5.479452050E-04
    1189       1     1282    5.479452050E-04
    1190       1     1283    5.479452050E-04
    1191       1     1284    5.479452050E-04
    1192       1     1285    5.479452050E-04
    1193       1     1286    5.479452050E-04
    1194       1     1287    5.479452050E-04
    1195       1     1288    5.479452050E-04
    1196       1     1289    5.479452050E-04
    1197       1     1290    5.479452050E-04
    1198       1     1291    5.479452050E-04
    1199       1     1292    5.479452050E-04
    1200       1     1293    5.479452050E-04
    1201       1     1294    5.479452050E-04
    1202       1     1295    5.479452050E-04
    1203       1     1296    5.479452050E-04
    1204       1     1297    5.479452050E-04
    1205       1     1298    5.479452050E-04
    1206       1     1299    5.479452050E-04
    1207       1     1300    5.479452050E-04
    1208       1     1301    5.479452050E-04
    1209       1     1302    5.479452050E-04
    1210       1     1303    5.479452050E-04
    1211       1     1304    5.479452050E-04
    1212       1     1305    5.479452050E-04
    1213       1     1306    5.479452050E-04
    1214       1     1307    5.479452050E-04
    1215       1     1308    5.479452050E-04
    1216       1     1309    5.479452050E-04
    1217       1     1310    5.479452050E-04
    1218       1     1311    5.479452050E-04
    1219       1     1312    5.479452050E-04
    1220       1     1313    5.479452050E-04
    1221       1     1314    5.479452050E-04
    1222       1     1315    5.479452050E-04
    1223       1     1316    5.479452050E-04
    1224       1     1317    5.479452050E-04
    1225       1     1318    5.479452050E-04
    1226       1     1320    5.479452050E-04
    1227       1     1321    5.479452050E-04
    1228       1     1322    5.479452050E-04
    1229       1     1323    5.479452050E-04
    1230       1     1324    5.479452050E-04
    1231       1     1325    5.479452050E-04
    1232       1     1326    5.479452050E-04
    1233       1     1327    5.479452050E-04
    1234       1     1328    5.479452050E-04
    1235       1     1329    5.479452050E-04
    1236       1     1330    5.479452050E-04
    1237       1     1331    5.479452050E-04
    1238       1     1332    5.479452050E-04
    1239       1     1333    5.479452050E-04
    1240       1     1334    5.479452050E-04
    1241       1     1335    5.479452050E-04
    1242       1     1336    5.479452050E-04
    1243       1     1337    5.479452050E-04
    1244       1     1338    5.479452050E-04
    1245       1     1339    5.479452050E-04
    1246       1     1340    5.479452050E-04
    1247       1     1341    5.479452050E-04
    1248       1     1342    5.479452050E-04
    1249       1     1343    5.479452050E-04
    1250       1     1344    5.479452050E-04
    1251       1     1345    5.479452050E-04
    1252       1     1346    5.479452050E-04
    1253       1     1347    5.479452050E-04
    1254       1     1348    5.479452050E-04
    1255       1     1349    5.479452050E-04
    1256       1     1350    5.479452050E-04
    1257       1     1351    5.479452050E-04
    1258       1     1352    5.479452050E-04
    1259       1     1353    5.479452050E-04
    1260       1     1354    5.479452050E-04
    1261       1     1355    5.479452050E-04
    1262       1     1356    5.479452050E-04
    1263       1     1357    5.479452050E-04
    1264       1     1358    5.479452050E-04
    1265       1     1359    5.479452050E-04
    1266       1     1360    5.479452050E-04
    1267       1     1361    5.479452050E-04
    1268       1     1362    5.479452050E-04
    1269       1     1363    5.479452050E-04
    1270       1     1364    5.479452050E-04
    1271       1     1365    5.479452050E-04
    1272       1     1366    5.479452050E-04
    1273       1     1367    5.479452050E-04
    1274       1     1368    5.479452050E-04
    1275       1     1369    5.479452050E-04
    1276       1     1370    5.479452050E-04
    1277       1     1371    5.479452050E-04
    1278       1     1372    5.479452050E-04
    1279       1     1373    5.479452050E-04
    1280       1     1374    5.479452050E-04
    1281       1     1375    5.479452050E-04
    1282       1     1376    5.479452050E-04
    1283       1     1377    5.479452050E-04
    1284       1     1378    5.479452050E-04
    1285       1     1379    5.479452050E-04
    1286       1     1380    5.479452050E-04
    1287       1     1381    5.479452050E-04
    1288       1     1382    5.479452050E-04
    1289       1     1383    5.479452050E-04
    1290       1     1384    5.479452050E-04
    1291       1     1385    5.479452050E-04
    1292       1     1386    5.479452050E-04
    1293       1     1387    5.479452050E-04
    1294       1     1388    5.479452050E-04
    1295       1     1389    5.479452050E-04
    1296       1     1390    5.479452050E-04
    1297       1     1391    5.479452050E-04
    1298       1     1392    5.479452050E-04
    1299       1     1393    5.479452050E-04
    1300       1     1394    5.479452050E-04
    1301       1     1395    5.479452050E-04
    1302       1     1396    5.479452050E-04
    1303       1     1397    5.479452050E-04
    1304       1     1400    5.479452050E-04
    1305       1     1401    5.479452050E-04
    1306       1     1402    5.479452050E-04
    1307       1     1403    5.479452050E-04
    1308       1     1404    5.479452050E-04
    1309       1     1405    5.479452050E-04
    1310       1     1406    5.479452050E-04
    1311       1     1407    5.479452050E-04
    1312       1     1408    5.479452050E-04
    1313       1     1409    5.479452050E-04
    1314       1     1410    5.479452050E-04
    1315       1     1411    5.479452050E-04
    1316       1     1412    5.479452050E-04
    1317       1     1413    5.479452050E-04
    1318       1     1414    5.479452050E-04
    1319       1     1415    5.479452050E-04
    1320       1     1416    5.479452050E-04
    1321       1     1417    5.479452050E-04
    1322       1     1418    5.479452050E-04
    1323       1     1419    5.479452050E-04
    1324       1     1420    5.479452050E-04
    1325       1     1421    5.479452050E-04
    1326       1     1422    5.479452050E-04
    1327       1     1423    5.479452050E-04
    1328       1     1424    5.479452050E-04
    1329       1     1425    5.479452050E-04
    1330       1     1426    5.479452050E-04
    1331       1     1427    5.479452050E-04
    1332       1     1428    5.479452050E-04
    1333       1     1429    5.479452050E-04
    1334       1     1430    5.479452050E-04
    1335       1     1431    5.479452050E-04
    1336       1     1432    5.479452050E-04
    1337       1     1433    5.479452050E-04
    1338       1     1434    5.479452050E-04
    1339       1     1435    5.479452050E-04
    1340       1     1436    5.479452050E-04
    1341       1     1437    5.479452050E-04
    1342       1     1438    5.479452050E-04
    1343       1     1439    5.479452050E-04
    1344       1     1440    5.479452050E-04
    1345       1     1441    5.479452050E-04
    1346       1     1442    5.479452050E-04
    1347       1     1443    5.479452050E-04
    1348       1     1444    5.479452050E-04
    1349       1     1445    5.479452050E-04
    1350       1     1446    5.479452050E-04
    1351       1     1447    5.479452050E-04
    1352       1     1448    5.479452050E-04
    1353       1     1449    5.479452050E-04
    1354       1     1450    5.479452050E-04
    1355       1     1451    5.479452050E-04
    1356       1     1452    5.479452050E-04
    1357       1     1453    5.479452050E-04
    1358       1     1454    5.479452050E-04
    1359       1     1455    5.479452050E-04
    1360       1     1456    5.479452050E-04
    1361       1     1457    5.479452050E-04
    1362       1     1458    5.479452050E-04
    1363       1     1459    5.479452050E-04
    1364       1     1460    5.479452050E-04
    1365       1     1461    5.479452050E-04
    1366       1     1462    5.479452050E-04
    1367       1     1463    5.479452050E-04
    1368       1     1464    5.479452050E-04
    1369       1     1465    5.479452050E-04
    1370       1     1466    5.479452050E-04
    1371       1     1467    5.479452050E-04
    1372       1     1468    5.479452050E-04
    1373       1     1469    5.479452050E-04
    1374       1     1470    5.479452050E-04
    1375       1     1471    5.479452050E-04
    1376       1     1472    5.479452050E-04
    1377       1     1473    5.479452050E-04
    1378       1     1474    5.479452050E-04
    1379       1     1475    5.479452050E-04
    1380       1     1476    5.479452050E-04
    1381       1     1477    5.479452050E-04
    1382       1     1478    5.479452050E-04
    1383       1     1479    5.479452050E-04
    1384       1     1480    5.479452050E-04
    1385       1     1481    5.479452050E-04
    1386       1     1482    5.479452050E-04
    1387       1     1483    5.479452050E-04
    1388       1     1484    5.479452050E-04
    1389       1     1487    5.479452050E-04
    1390       1     1488    5.479452050E-04
    1391       1     1489    5.479452050E-04
    1392       1     1490    5.479452050E-04
    1393       1     1491    5.479452050E-04
    1394       1     1492    5.479452050E-04
    1395       1     1493    5.479452050E-04
    1396       1     1494    5.479452050E-04
    1397       1     1495    5.479452050E-04
    1398       1     1496    5.479452050E-04
    1399       1     1497    5.479452050E-04
    1400       1     1498    5.479452050E-04
    1401       1     1499    5.479452050E-04
    1402       1     1500    5.479452050E-04
    1403       1     1501    5.479452050E-04
    1404       1     1502    5.479452050E-04
    1405       1     1503    5.479452050E-04
    1406       1     1504    5.479452050E-04
    1407       1     1505    5.479452050E-04
    1408       1     1506    5.479452050E-04
    1409       1     1507    5.479452050E-04
    1410       1     1508    5.479452050E-04
    1411       1     1509    5.479452050E-04
    1412       1     1510    5.479452050E-04
    1413       1     1511    5.479452050E-04
    1414       1     1512    5.479452050E-04
    1415       1     1513    5.479452050E-04
    1416       1     1514    5.479452050E-04
    1417       1     1515    5.479452050E-04
    1418       1     1516    5.479452050E-04
    1419       1     1517    5.479452050E-04
    1420       1     1518    5.479452050E-04
    1421       1     1519    5.479452050E-04
    1422       1     1520    5.479452050E-04
    1423       1     1521    5.479452050E-04
    1424       1     1522    5.479452050E-04
    1425       1     1523    5.479452050E-04
    1426       1     1524    5.479452050E-04
    1427       1     1525    5.479452050E-04
    1428       1     1526    5.479452050E-04
    1429       1     1527    5.479452050E-04
    1430       1     1528    5.479452050E-04
    1431       1     1529    5.479452050E-04
    1432       1     1530    5.479452050E-04
    1433       1     1531    5.479452050E-04
    1434       1     1532    5.479452050E-04
    1435       1     1533    5.479452050E-04
    1436       1     1534    5.479452050E-04
    1437       1     1535    5.479452050E-04
    1438       1     1536    5.479452050E-04
    1439       1     1537    5.479452050E-04
    1440       1     1538    5.479452050E-04
    1441       1     1539    5.479452050E-04
    1442       1     1540    5.479452050E-04
    1443       1     1541    5.479452050E-04
    1444       1     1542    5.479452050E-04
    1445       1     1543    5.479452050E-04
    1446       1     1544    5.479452050E-04
    1447       1     1545    5.479452050E-04
    1448       1     1546    5.479452050E-04
    1449       1     1547    5.479452050E-04
    1450       1     1548    5.479452050E-04
    1451       1     1549    5.479452050E-04
    1452       1     1550    5.479452050E-04
    1453       1     1551    5.479452050E-04
    1454       1     1552    5.479452050E-04
    1455       1     1553    5.479452050E-04
    1456       1     1554    5.479452050E-04
    1457       1     1555    5.479452050E-04
    1458       1     1556    5.479452050E-04
    1459       1     1557    5.479452050E-04
    1460       1     1558    5.479452050E-04
    1461       1     1559    5.479452050E-04
    1462       1     1560    5.479452050E-04
    1463       1     1561    5.479452050E-04
    1464       1     1562    5.479452050E-04
    1465       1     1563    5.479452050E-04
    1466       1     1564    5.479452050E-04
    1467       1     1565    5.479452050E-04
    1468       1     1566    5.479452050E-04
    1469       1     1567    5.479452050E-04
    1470       1     1568    5.479452050E-04
    1471       1     1569    5.479452050E-04
    1472       1     1570    5.479452050E-04
    1473       1     1571    5.479452050E-04
    1474       1     1572    5.479452050E-04
    1475       1     1573    5.479452050E-04
    1476       1     1574    5.479452050E-04
    1477       1     1575    5.479452050E-04
    1478       1     1576    5.479452050E-04
    1479       1     1577    5.479452050E-04
    1480       1     1578    5.479452050E-04
    1481       1     1579    5.479452050E-04
    1482       1     1582    5.479452050E-04
    1483       1     1583    5.479452050E-04
    1484       1     1584    5.479452050E-04
    1485       1     1585    5.479452050E-04
    1486       1     1586    5.479452050E-04
    1487       1     1587    5.479452050E-04
    1488       1     1588    5.479452050E-04
    1489       1     1589    5.479452050E-04
    1490       1     1590    5.479452050E-04
    1491       1     1591    5.479452050E-04
    1492       1     1592    5.479452050E-04
    1493       1     1593    5.479452050E-04
    1494       1     1594    5.479452050E-04
    1495       1     1595    5.479452050E-04
    1496       1     1596    5.479452050E-04
    1497       1     1597    5.479452050E-04
    1498       1     1598    5.479452050E-04
    1499       1     1599    5.479452050E-04
    1500       1     1600    5.479452050E-04
    1501       1     1601    5.479452050E-04
    1502       1     1602    5.479452050E-04
    1503       1     1603    5.479452050E-04
    1504       1     1604    5.479452050E-04
    1505       1     1605    5.479452050E-04
    1506       1     1606    5.479452050E-04
    1507       1     1607    5.479452050E-04
    1508       1     1608    5.479452050E-04
    1509       1     1609    5.479452050E-04
    1510       1     1610    5.479452050E-04
    1511       1     1611    5.479452050E-04
    1512       1     1612    5.479452050E-04
    1513       1     1613    5.479452050E-04
    1514       1     1614    5.479452050E-04
    1515       1     1615    5.479452050E-04
    1516       1     1616    5.479452050E-04
    1517       1     1617    5.479452050E-04
    1518       1     1618    5.479452050E-04
    1519       1     1619    5.479452050E-04
    1520       1     1620    5.479452050E-04
    1521       1     1621    5.479452050E-04
    1522       1     1622    5.479452050E-04
    1523       1     1623    5.479452050E-04
    1524       1     1624    5.479452050E-04
    1525       1     1625    5.479452050E-04
    1526       1     1626    5.479452050E-04
    1527       1     1627    5.479452050E-04
    1528       1     1628    5.479452050E-04
    1529       1     1629    5.479452050E-04
    1530       1     1630    5.479452050E-04
    1531       1     1631    5.479452050E-04
    1532       1     1632    5.479452050E-04
    1533       1     1633    5.479452050E-04
    1534       1     1634    5.479452050E-04
    1535       1     1635    5.479452050E-04
    1536       1     1636    5.479452050E-04
    1537       1     1637    5.479452050E-04
    1538       1     1638    5.479452050E-04
    1539       1     1639    5.479452050E-04
    1540       1     1640    5.479452050E-04
    1541       1     1641    5.479452050E-04
    1542       1     1642    5.479452050E-04
    1543       1     1643    5.479452050E-04
    1544       1     1644    5.479452050E-04
    1545       1     1645    5.479452050E-04
    1546       1     1646    5.479452050E-04
    1547       1     1647    5.479452050E-04
    1548       1     1648    5.479452050E-04
    1549       1     1649    5.479452050E-04
    1550       1     1650    5.479452050E-04
    1551       1     1651    5.479452050E-04
    1552       1     1652    5.479452050E-04
    1553       1     1653    5.479452050E-04
    1554       1     1654    5.479452050E-04
    1555       1     1655    5.479452050E-04
    1556       1     1656    5.479452050E-04
    1557       1     1657    5.479452050E-04
    1558       1     1658    5.479452050E-04
    1559       1     1659    5.479452050E-04
    1560       1     1660    5.479452050E-04
    1561       1     1661    5.479452050E-04
    1562       1     1662    5.479452050E-04
    1563       1     1663    5.479452050E-04
    1564       1     1664    5.479452050E-04
    1565       1     1665    5.479452050E-04
    1566       1     1666    5.479452050E-04
    1567       1     1667    5.479452050E-04
    1568       1     1668    5.479452050E-04
    1569       1     1669    5.479452050E-04
    1570       1     1670    5.479452050E-04
    1571       1     1671    5.479452050E-04
    1572       1     1672    5.479452050E-04
    1573       1     1673    5.479452050E-04
    1574       1     1674    5.479452050E-04
    1575       1     1675    5.479452050E-04
    1576       1     1676    5.479452050E-04
    1577       1     1677    5.479452050E-04
    1578       1     1678    5.479452050E-04
    1579       1     1679    5.479452050E-04
    1580       1     1680    5.479452050E-04
    1581       1     1681    5.479452050E-04
    1582       1     1682    5.479452050E-04
    1583       1     1683    5.479452050E-04
    1584       1     1684    5.479452050E-04
    1585       1     1685    5.479452050E-04
    1586       1     1686    5.479452050E-04
    1587       1     1687    5.479452050E-04
    1588       1     1688    5.479452050E-04
    1589       1     1689    5.479452050E-04
    1590       1     1690    5.479452050E-04
    1591       1     1691    5.479452050E-04
    1592       1     1694    5.479452050E-04
    1593       1     1695    5.479452050E-04
    1594       1     1696    5.479452050E-04
    1595       1     1697    5.479452050E-04
    1596       1     1698    5.479452050E-04
    1597       1     1699    5.479452050E-04
    1598       1     1700    5.479452050E-04
    1599       1     1701    5.479452050E-04
    1600       1     1702    5.479452050E-04
    1601       1     1703    5.479452050E-04
    1602       1     1704    5.479452050E-04
    1603       1     1705    5.479452050E-04
    1604       1     1706    5.479452050E-04
    1605       1     1707    5.479452050E-04
    1606       1     1708    5.479452050E-04
    1607       1     1709    5.479452050E-04
    1608       1     1710    5.479452050E-04
    1609       1     1711    5.479452050E-04
    1610       1     1712    5.479452050E-04
    1611       1     1713    5.479452050E-04
    1612       1     1714    5.479452050E-04
    1613       1     1715    5.479452050E-04
    1614       1     1716    5.479452050E-04
    1615       1     1717    5.479452050E-04
    1616       1     1718    5.479452050E-04
    1617       1     1719    5.479452050E-04
    1618       1     1720    5.479452050E-04
    1619       1     1721    5.479452050E-04
    1620       1     1722    5.479452050E-04
    1621       1     1723    5.479452050E-04
    1622       1     1724    5.479452050E-04
    1623       1     1725    5.479452050E-04
    1624       1     1726    5.479452050E-04
    1625       1     1727    5.479452050E-04
    1626       1     1728    5.479452050E-04
    1627       1     1729    5.479452050E-04
    1628       1     1730    5.479452050E-04
    1629       1     1731    5.479452050E-04
    1630       1     1732    5.479452050E-04
    1631       1     1733    5.479452050E-04
    1632       1     1734    5.479452050E-04
    1633       1     1735    5.479452050E-04
    1634       1     1736    5.479452050E-04
    1635       1     1737    5.479452050E-04
    1636       1     1738    5.479452050E-04
    1637       1     1739    5.479452050E-04
    1638       1     1740    5.479452050E-04
    1639       1     1741    5.479452050E-04
    1640       1     1742    5.479452050E-04
    1641       1     1743    5.479452050E-04
    1642       1     1744    5.479452050E-04
    1643       1     1745    5.479452050E-04
    1644       1     1746    5.479452050E-04
    1645       1     1747    5.479452050E-04
    1646       1     1748    5.479452050E-04
    1647       1     1749    5.479452050E-04
    1648       1     1750    5.479452050E-04
    1649       1     1751    5.479452050E-04
    1650       1     1752    5.479452050E-04
    1651       1     1753    5.479452050E-04
    1652       1     1754    5.479452050E-04
    1653       1     1755    5.479452050E-04
    1654       1     1756    5.479452050E-04
    1655       1     1757    5.479452050E-04
    1656       1     1758    5.479452050E-04
    1657       1     1759    5.479452050E-04
    1658       1     1760    5.479452050E-04
    1659       1     1761    5.479452050E-04
    1660       1     1762    5.479452050E-04
    1661       1     1763    5.479452050E-04
    1662       1     1764    5.479452050E-04
    1663       1     1765    5.479452050E-04
    1664       1     1766    5.479452050E-04
    1665       1     1767    5.479452050E-04
    1666       1     1768    5.479452050E-04
    1667       1     1769    5.479452050E-04
    1668       1     1770    5.479452050E-04
    1669       1     1771    5.479452050E-04
    1670       1     1772    5.479452050E-04
    1671       1     1773    5.479452050E-04
    1672       1     1774    5.479452050E-04
    1673       1     1775    5.479452050E-04
    1674       1     1778    5.479452050E-04
    1675       1     1779    5.479452050E-04
    1676       1     1780    5.479452050E-04
    1677       1     1781    5.479452050E-04
    1678       1     1782    5.479452050E-04
    1679       1     1783    5.479452050E-04
    1680       1     1784    5.479452050E-04
    1681       1     1785    5.479452050E-04
    1682       1     1786    5.479452050E-04
    1683       1     1787    5.479452050E-04
    1684       1     1788    5.479452050E-04
    1685       1     1789    5.479452050E-04
    1686       1     1790    5.479452050E-04
    1687       1     1791    5.479452050E-04
    1688       1     1792    5.479452050E-04
    1689       1     1793    5.479452050E-04
    1690       1     1794    5.479452050E-04
    1691       1     1795    5.479452050E-04
    1692       1     1796    5.479452050E-04
    1693       1     1797    5.479452050E-04
    1694       1     1798    5.479452050E-04
    1695       1     1799    5.479452050E-04
    1696       1     1800    5.479452050E-04
    1697       1     1801    5.479452050E-04
    1698       1     1802    5.479452050E-04
    1699       1     1803    5.479452050E-04
    1700       1     1804    5.479452050E-04
    1701       1     1805    5.479452050E-04
    1702       1     1806    5.479452050E-04
    1703       1     1807    5.479452050E-04
    1704       1     1808    5.479452050E-04
    1705       1     1809    5.479452050E-04
    1706       1     1810    5.479452050E-04
    1707       1     1811    5.479452050E-04
    1708       1     1812    5.479452050E-04
    1709       1     1813    5.479452050E-04
    1710       1     1814    5.479452050E-04
    1711       1     1815    5.479452050E-04
    1712       1     1816    5.479452050E-04
    1713       1     1817    5.479452050E-04
    1714       1     1818    5.479452050E-04
    1715       1     1819    5.479452050E-04
    1716       1     1820    5.479452050E-04
    1717       1     1821    5.479452050E-04
    1718       1     1822    5.479452050E-04
    1719       1     1823    5.479452050E-04
    1720       1     1824    5.479452050E-04
    1721       1     1825    5.479452050E-04
    1722       1     1826    5.479452050E-04
    1723       1     1827    5.479452050E-04
    1724       1     1828    5.479452050E-04
    1725       1     1829    5.479452050E-04
    1726       1     1830    5.479452050E-04
    1727       1     1831    5.479452050E-04
    1728       1     1832    5.479452050E-04
    1729       1     1833    5.479452050E-04
    1730       1     1834    5.479452050E-04
    1731       1     1835    5.479452050E-04
    1732       1     1836    5.479452050E-04
    1733       1     1837    5.479452050E-04
    1734       1     1838    5.479452050E-04
    1735       1     1839    5.479452050E-04
    1736       1     1840    5.479452050E-04
    1737       1     1841    5.479452050E-04
    1738       1     1842    5.479452050E-04
    1739       1     1843    5.479452050E-04
    1740       1     1844    5.479452050E-04
    1741       1     1845    5.479452050E-04
    1742       1     1846    5.479452050E-04
    1743       1     1847    5.479452050E-04
    1744       1     1848    5.479452050E-04
    1745       1     1849    5.479452050E-04
    1746       1     1850    5.479452050E-04
    1747       1     1851    5.479452050E-04
    1748       1     1852    5.479452050E-04
    1749       1     1855    5.479452050E-04
    1750       1     1856    5.479452050E-04
    1751       1     1857    5.479452050E-04
    1752       1     1858    5.479452050E-04
    1753       1     1859    5.479452050E-04
    1754       1     1860    5.479452050E-04
    1755       1     1861    5.479452050E-04
    1756       1     1862    5.479452050E-04
    1757       1     1863    5.479452050E-04
    1758       1     1864    5.479452050E-04
    1759       1     1865    5.479452050E-04
    1760       1     1866    5.479452050E-04
    1761       1     1867    5.479452050E-04
    1762       1     1868    5.479452050E-04
    1763       1     1869    5.479452050E-04
    1764       1     1870    5.479452050E-04
    1765       1     1871    5.479452050E-04
    1766       1     1872    5.479452050E-04
    1767       1     1873    5.479452050E-04
    1768       1     1874    5.479452050E-04
    1769       1     1875    5.479452050E-04
    1770       1     1876    5.479452050E-04
    1771       1     1877    5.479452050E-04
    1772       1     1878    5.479452050E-04
    1773       1     1879    5.479452050E-04
    1774       1     1880    5.479452050E-04
    1775       1     1881    5.479452050E-04
    1776       1     1882    5.479452050E-04
    1777       1     1883    5.479452050E-04
    1778       1     1884    5.479452050E-04
    1779       1     1885    5.479452050E-04
    1780       1     1886    5.479452050E-04
    1781       1     1887    5.479452050E-04
    1782       1     1888    5.479452050E-04
    1783       1     1889    5.479452050E-04
    1784       1     1890    5.479452050E-04
    1785       1     1891    5.479452050E-04
    1786       1     1892    5.479452050E-04
    1787       1     1893    5.479452050E-04
    1788       1     1894    5.479452050E-04
    1789       1     1895    5.479452050E-04
    1790       1     1896    5.479452050E-04
    1791       1     1897    5.479452050E-04
    1792       1     1898    5.479452050E-04
    1793       1     1899    5.479452050E-04
    1794       1     1900    5.479452050E-04
    1795       1     1901    5.479452050E-04
    1796       1     1902    5.479452050E-04
    1797       1     1903    5.479452050E-04
    1798       1     1904    5.479452050E-04
    1799       1     1905    5.479452050E-04
    1800       1     1906    5.479452050E-04
    1801       1     1907    5.479452050E-04
    1802       1     1908    5.479452050E-04
    1803       1     1909    5.479452050E-04
    1804       1     1910    5.479452050E-04
    1805       1     1911    5.479452050E-04
    1806       1     1912    5.479452050E-04
    1807       1     1913    5.479452050E-04
    1808       1     1914    5.479452050E-04
    1809       1     1915    5.479452050E-04
    1810       1     1916    5.479452050E-04
    1811       1     1917    5.479452050E-04
    1812       1     1918    5.479452050E-04
    1813       1     1919    5.479452050E-04
    1814       1     1920    5.479452050E-04
    1815       1     1921    5.479452050E-04
    1816       1     1922    5.479452050E-04
    1817       1     1923    5.479452050E-04
    1818       1     1924    5.479452050E-04
    1819       1     1925    5.479452050E-04
    1820       1     1926    5.479452050E-04
    1821       1     1927    5.479452050E-04
    1822       1     1928    5.479452050E-04
    1823       1     1931    5.479452050E-04
    1824       1     1932    5.479452050E-04
    1825       1     1933    5.479452050E-04
    1826       1     1934    5.479452050E-04
    1827       1     1935    5.479452050E-04
    1828       1     1936    5.479452050E-04
    1829       1     1937    5.479452050E-04
    1830       1     1938    5.479452050E-04
    1831       1     1939    5.479452050E-04
    1832       1     1940    5.479452050E-04
    1833       1     1941    5.479452050E-04
    1834       1     1942    5.479452050E-04
    1835       1     1943    5.479452050E-04
    1836       1     1944    5.479452050E-04
    1837       1     1945    5.479452050E-04
    1838       1     1946    5.479452050E-04
    1839       1     1947    5.479452050E-04
    1840       1     1948    5.479452050E-04
    1841       1     1949    5.479452050E-04
    1842       1     1950    5.479452050E-04
    1843       1     1951    5.479452050E-04
    1844       1     1952    5.479452050E-04
    1845       1     1953    5.479452050E-04
    1846       1     1954    5.479452050E-04
    1847       1     1955    5.479452050E-04
    1848       1     1956    5.479452050E-04
    1849       1     1957    5.479452050E-04
    1850       1     1958    5.479452050E-04
    1851       1     1959    5.479452050E-04
    1852       1     1960    5.479452050E-04
    1853       1     1961    5.479452050E-04
    1854       1     1962    5.479452050E-04
    1855       1     1963    5.479452050E-04
    1856       1     1964    5.479452050E-04
    1857       1     1965    5.479452050E-04
    1858       1     1966    5.479452050E-04
    1859       1     1967    5.479452050E-04
    1860       1     1968    5.479452050E-04
    1861       1     1969    5.479452050E-04
    1862       1     1970    5.479452050E-04
    1863       1     1971    5.479452050E-04
    1864       1     1972    5.479452050E-04
    1865       1     1973    5.479452050E-04
    1866       1     1974    5.479452050E-04
    1867       1     1975    5.479452050E-04
    1868       1     1976    5.479452050E-04
    1869       1     1977    5.479452050E-04
    1870       1     1978    5.479452050E-04
    1871       1     1979    5.479452050E-04
    1872       1     1980    5.479452050E-04
    1873       1     1981    5.479452050E-04
    1874       1     1982    5.479452050E-04
    1875       1     1983    5.479452050E-04
    1876       1     1984    5.479452050E-04
    1877       1     1985    5.479452050E-04
    1878       1     1986    5.479452050E-04
    1879       1     1987    5.479452050E-04
    1880       1     1988    5.479452050E-04
    1881       1     1989    5.479452050E-04
    1882       1     1990    5.479452050E-04
    1883       1     1991    5.479452050E-04
    1884       1     1992    5.479452050E-04
    1885       1     1993    5.479452050E-04
    1886       1     1994    5.479452050E-04
    1887       1     1995    5.479452050E-04
    1888       1     1996    5.479452050E-04
    1889       1     1997    5.479452050E-04
    1890       1     1998    5.479452050E-04
    1891       1     1999    5.479452050E-04
    1892       1     2000    5.479452050E-04
    1893       1     2001    5.479452050E-04
    1894       1     2002    5.479452050E-04
    1895       1     2003    5.479452050E-04
    1896       1     2006    5.479452050E-04
    1897       1     2007    5.479452050E-04
    1898       1     2008    5.479452050E-04
    1899       1     2009    5.479452050E-04
    1900       1     2010    5.479452050E-04
    1901       1     2011    5.479452050E-04
    1902       1     2012    5.479452050E-04
    1903       1     2013    5.479452050E-04
    1904       1     2014    5.479452050E-04
    1905       1     2015    5.479452050E-04
    1906       1     2016    5.479452050E-04
    1907       1     2017    5.479452050E-04
    1908       1     2018    5.479452050E-04
    1909       1     2019    5.479452050E-04
    1910       1     2020    5.479452050E-04
    1911       1     2021    5.479452050E-04
    1912       1     2022    5.479452050E-04
    1913       1     2023    5.479452050E-04
    1914       1     2024    5.479452050E-04
    1915       1     2025    5.479452050E-04
    1916       1     2026    5.479452050E-04
    1917       1     2027    5.479452050E-04
    1918       1     2028    5.479452050E-04
    1919       1     2029    5.479452050E-04
    1920       1     2030    5.479452050E-04
    1921       1     2031    5.479452050E-04
    1922       1     2032    5.479452050E-04
    1923       1     2033    5.479452050E-04
    1924       1     2034    5.479452050E-04
    1925       1     2035    5.479452050E-04
    1926       1     2036    5.479452050E-04
    1927       1     2037    5.479452050E-04
    1928       1     2038    5.479452050E-04
    1929       1     2039    5.479452050E-04
    1930       1     2040    5.479452050E-04
    1931       1     2041    5.479452050E-04
    1932       1     2042    5.479452050E-04
    1933       1     2043    5.479452050E-04
    1934       1     2044    5.479452050E-04
    1935       1     2045    5.479452050E-04
    1936       1     2046    5.479452050E-04
    1937       1     2047    5.479452050E-04
    1938       1     2048    5.479452050E-04
    1939       1     2049    5.479452050E-04
    1940       1     2050    5.479452050E-04
    1941       1     2051    5.479452050E-04
    1942       1     2052    5.479452050E-04
    1943       1     2053    5.479452050E-04
    1944       1     2054    5.479452050E-04
    1945       1     2055    5.479452050E-04
    1946       1     2056    5.479452050E-04
    1947       1     2057    5.479452050E-04
    1948       1     2058    5.479452050E-04
    1949       1     2059    5.479452050E-04
    1950       1     2060    5.479452050E-04
    1951       1     2061    5.479452050E-04
    1952       1     2062    5.479452050E-04
    1953       1     2063    5.479452050E-04
    1954       1     2064    5.479452050E-04
    1955       1     2065    5.479452050E-04
    1956       1     2066    5.479452050E-04
    1957       1     2067    5.479452050E-04
    1958       1     2068    5.479452050E-04
    1959       1     2069    5.479452050E-04
    1960       1     2070    5.479452050E-04
    1961       1     2071    5.479452050E-04
    1962       1     2072    5.479452050E-04
    1963       1     2073    5.479452050E-04
    1964       1     2074    5.479452050E-04
    1965       1     2077    5.479452050E-04
    1966       1     2078    5.479452050E-04
    1967       1     2079    5.479452050E-04
    1968       1     2080    5.479452050E-04
    1969       1     2081    5.479452050E-04
    1970       1     2082    5.479452050E-04
    1971       1     2083    5.479452050E-04
    1972       1     2084    5.479452050E-04
    1973       1     2085    5.479452050E-04
    1974       1     2086    5.479452050E-04
    1975       1     2087    5.479452050E-04
    1976       1     2088    5.479452050E-04
    1977       1     2089    5.479452050E-04
    1978       1     2090    5.479452050E-04
    1979       1     2091    5.479452050E-04
    1980       1     2092    5.479452050E-04
    1981       1     2093    5.479452050E-04
    1982       1     2094    5.479452050E-04
    1983       1     2095    5.479452050E-04
    1984       1     2096    5.479452050E-04
    1985       1     2097    5.479452050E-04
    1986       1     2098    5.479452050E-04
    1987       1     2099    5.479452050E-04
    1988       1     2100    5.479452050E-04
    1989       1     2101    5.479452050E-04
    1990       1     2102    5.479452050E-04
    1991       1     2103    5.479452050E-04
    1992       1     2104    5.479452050E-04
    1993       1     2105    5.479452050E-04
    1994       1     2106    5.479452050E-04
    1995       1     2107    5.479452050E-04
    1996       1     2108    5.479452050E-04
    1997       1     2109    5.479452050E-04
    1998       1     2110    5.479452050E-04
    1999       1     2111    5.479452050E-04
    2000       1     2112    5.479452050E-04
    2001       1     2113    5.479452050E-04
    2002       1     2114    5.479452050E-04
    2003       1     2115    5.479452050E-04
    2004       1     2116    5.479452050E-04
    2005       1     2117    5.479452050E-04
    2006       1     2118    5.479452050E-04
    2007       1     2119    5.479452050E-04
    2008       1     2120    5.479452050E-04
    2009       1     2121    5.479452050E-04
    2010       1     2122    5.479452050E-04
    2011       1     2123    5.479452050E-04
    2012       1     2124    5.479452050E-04
    2013       1     2125    5.479452050E-04
    2014       1     2126    5.479452050E-04
    2015       1     2127    5.479452050E-04
    2016       1     2128    5.479452050E-04
    2017       1     2129    5.479452050E-04
    2018       1     2130    5.479452050E-04
    2019       1     2131    5.479452050E-04
    2020       1     2132    5.479452050E-04
    2021       1     2133    5.479452050E-04
    2022       1     2134    5.479452050E-04
    2023       1     2135    5.479452050E-04
    2024       1     2136    5.479452050E-04
    2025       1     2137    5.479452050E-04
    2026       1     2138    5.479452050E-04
    2027       1     2139    5.479452050E-04
    2028       1     2140    5.479452050E-04
    2029       1     2141    5.479452050E-04
    2030       1     2142    5.479452050E-04
    2031       1     2143    5.479452050E-04
    2032       1     2144    5.479452050E-04
    2033       1     2147    5.479452050E-04
    2034       1     2148    5.479452050E-04
    2035       1     2149    5.479452050E-04
    2036       1     2150    5.479452050E-04
    2037       1     2151    5.479452050E-04
    2038       1     2152    5.479452050E-04
    2039       1     2153    5.479452050E-04
    2040       1     2154    5.479452050E-04
    2041       1     2155    5.479452050E-04
    2042       1     2156    5.479452050E-04
    2043       1     2157    5.479452050E-04
    2044       1     2158    5.479452050E-04
    2045       1     2159    5.479452050E-04
    2046       1     2160    5.479452050E-04
    2047       1     2161    5.479452050E-04
    2048       1     2162    5.479452050E-04
    2049       1     2163    5.479452050E-04
    2050       1     2164    5.479452050E-04
    2051       1     2165    5.479452050E-04
    2052       1     2166    5.479452050E-04
    2053       1     2167    5.479452050E-04
    2054       1     2168    5.479452050E-04
    2055       1     2169    5.479452050E-04
    2056       1     2170    5.479452050E-04
    2057       1     2171    5.479452050E-04
    2058       1     2172    5.479452050E-04
    2059       1     2173    5.479452050E-04
    2060       1     2174    5.479452050E-04
    2061       1     2175    5.479452050E-04
    2062       1     2176    5.479452050E-04
    2063       1     2177    5.479452050E-04
    2064       1     2178    5.479452050E-04
    2065       1     2179    5.479452050E-04
    2066       1     2180    5.479452050E-04
    2067       1     2181    5.479452050E-04
    2068       1     2182    5.479452050E-04
    2069       1     2183    5.479452050E-04
    2070       1     2184    5.479452050E-04
    2071       1     2185    5.479452050E-04
    2072       1     2186    5.479452050E-04
    2073       1     2187    5.479452050E-04
    2074       1     2188    5.479452050E-04
    2075       1     2189    5.479452050E-04
    2076       1     2190    5.479452050E-04
    2077       1     2191    5.479452050E-04
    2078       1     2192    5.479452050E-04
    2079       1     2193    5.479452050E-04
    2080       1     2194    5.479452050E-04
    2081       1     2195    5.479452050E-04
    2082       1     2196    5.479452050E-04
    2083       1     2197    5.479452050E-04
    2084       1     2198    5.479452050E-04
    2085       1     2199    5.479452050E-04
    2086       1     2200    5.479452050E-04
    2087       1     2201    5.479452050E-04
    2088       1     2202    5.479452050E-04
    2089       1     2203    5.479452050E-04
    2090       1     2204    5.479452050E-04
    2091       1     2205    5.479452050E-04
    2092       1     2206    5.479452050E-04
    2093       1     2207    5.479452050E-04
    2094       1     2208    5.479452050E-04
    2095       1     2209    5.479452050E-04
    2096       1     2210    5.479452050E-04
    2097       1     2211    5.479452050E-04
    2098       1     2212    5.479452050E-04
    2099       1     2213    5.479452050E-04
    2100       1     2216    5.479452050E-04
    2101       1     2217    5.479452050E-04
    2102       1     2218    5.479452050E-04
    2103       1     2219    5.479452050E-04
    2104       1     2220    5.479452050E-04
    2105       1     2221    5.479452050E-04
    2106       1     2222    5.479452050E-04
    2107       1     2223    5.479452050E-04
    2108       1     2224    5.479452050E-04
    2109       1     2225    5.479452050E-04
    2110       1     2226    5.479452050E-04
    2111       1     2227    5.479452050E-04
    2112       1     2228    5.479452050E-04
    2113       1     2229    5.479452050E-04
    2114       1     2230    5.479452050E-04
    2115       1     2231    5.479452050E-04
    2116       1     2232    5.479452050E-04
    2117       1     2233    5.479452050E-04
    2118       1     2234    5.479452050E-04
    2119       1     2235    5.479452050E-04
    2120       1     2236    5.479452050E-04
    2121       1     2237    5.479452050E-04
    2122       1     2238    5.479452050E-04
    2123       1     2239    5.479452050E-04
    2124       1     2240    5.479452050E-04
    2125       1     2241    5.479452050E-04
    2126       1     2242    5.479452050E-04
    2127       1     2243    5.479452050E-04
    2128       1     2244    5.479452050E-04
    2129       1     2245    5.479452050E-04
    2130       1     2246    5.479452050E-04
    2131       1     2247    5.479452050E-04
    2132       1     2248    5.479452050E-04
    2133       1     2249    5.479452050E-04
    2134       1     2250    5.479452050E-04
    2135       1     2251    5.479452050E-04
    2136       1     2252    5.479452050E-04
    2137       1     2253    5.479452050E-04
    2138       1     2254    5.479452050E-04
    2139       1     2255    5.479452050E-04
    2140       1     2256    5.479452050E-04
    2141       1     2257    5.479452050E-04
    2142       1     2258    5.479452050E-04
    2143       1     2259    5.479452050E-04
    2144       1     2260    5.479452050E-04
    2145       1     2261    5.479452050E-04
    2146       1     2262    5.479452050E-04
    2147       1     2263    5.479452050E-04
    2148       1     2264    5.479452050E-04
    2149       1     2265    5.479452050E-04
    2150       1     2266    5.479452050E-04
    2151       1     2267    5.479452050E-04
    2152       1     2268    5.479452050E-04
    2153       1     2269    5.479452050E-04
    2154       1     2270    5.479452050E-04
    2155       1     2271    5.479452050E-04
    2156       1     2272    5.479452050E-04
    2157       1     2273    5.479452050E-04
    2158       1     2274    5.479452050E-04
    2159       1     2275    5.479452050E-04
    2160       1     2276    5.479452050E-04
    2161       1     2277    5.479452050E-04
    2162       1     2278    5.479452050E-04
    2163       1     2279    5.479452050E-04
    2164       1     2280    5.479452050E-04
    2165       1     2281    5.479452050E-04
    2166       1     2282    5.479452050E-04
    2167       1     2283    5.479452050E-04
    2168       1     2284    5.479452050E-04
    2169       1     2285    5.479452050E-04
    2170       1     2286    5.479452050E-04
    2171       1     2287    5.479452050E-04
    2172       1     2288    5.479452050E-04
    2173       1     2289    5.479452050E-04
    2174       1     2290    5.479452050E-04
    2175       1     2291    5.479452050E-04
    2176       1     2292    5.479452050E-04
    2177       1     2293    5.479452050E-04
    2178       1     2294    5.479452050E-04
    2179       1     2295    5.479452050E-04
    2180       1     2296    5.479452050E-04
    2181       1     2297    5.479452050E-04
    2182       1     2298    5.479452050E-04
    2183       1     2299    5.479452050E-04
    2184       1     2300    5.479452050E-04
    2185       1     2301    5.479452050E-04
    2186       1     2302    5.479452050E-04
    2187       1     2303    5.479452050E-04
    2188       1     2304    5.479452050E-04
    2189       1     2305    5.479452050E-04
    2190       1     2306    5.479452050E-04
    2191       1     2307    5.479452050E-04
    2192       1     2308    5.479452050E-04
    2193       1     2311    5.479452050E-04
    2194       1     2312    5.479452050E-04
    2195       1     2313    5.479452050E-04
    2196       1     2314    5.479452050E-04
    2197       1     2315    5.479452050E-04
    2198       1     2316    5.479452050E-04
    2199       1     2317    5.479452050E-04
    2200       1     2318    5.479452050E-04
    2201       1     2319    5.479452050E-04
    2202       1     2320    5.479452050E-04
    2203       1     2321    5.479452050E-04
    2204       1     2322    5.479452050E-04
    2205       1     2323    5.479452050E-04
    2206       1     2324    5.479452050E-04
    2207       1     2325    5.479452050E-04
    2208       1     2326    5.479452050E-04
    2209       1     2327    5.479452050E-04
    2210       1     2328    5.479452050E-04
    2211       1     2329    5.479452050E-04
    2212       1     2330    5.479452050E-04
    2213       1     2331    5.479452050E-04
    2214       1     2332    5.479452050E-04
    2215       1     2333    5.479452050E-04
    2216       1     2334    5.479452050E-04
    2217       1     2335    5.479452050E-04
    2218       1     2336    5.479452050E-04
    2219       1     2337    5.479452050E-04
    2220       1     2338    5.479452050E-04
    2221       1     2339    5.479452050E-04
    2222       1     2340    5.479452050E-04
    2223       1     2341    5.479452050E-04
    2224       1     2342    5.479452050E-04
    2225       1     2343    5.479452050E-04
    2226       1     2344    5.479452050E-04
    2227       1     2345    5.479452050E-04
    2228       1     2346    5.479452050E-04
    2229       1     2347    5.479452050E-04
    2230       1     2348    5.479452050E-04
    2231       1     2349    5.479452050E-04
    2232       1     2350    5.479452050E-04
    2233       1     2351    5.479452050E-04
    2234       1     2352    5.479452050E-04
    2235       1     2353    5.479452050E-04
    2236       1     2354    5.479452050E-04
    2237       1     2355    5.479452050E-04
    2238       1     2356    5.479452050E-04
    2239       1     2357    5.479452050E-04
    2240       1     2358    5.479452050E-04
    2241       1     2359    5.479452050E-04
    2242       1     2360    5.479452050E-04
    2243       1     2361    5.479452050E-04
    2244       1     2362    5.479452050E-04
    2245       1     2363    5.479452050E-04
    2246       1     2364    5.479452050E-04
    2247       1     2365    5.479452050E-04
    2248       1     2366    5.479452050E-04
    2249       1     2367    5.479452050E-04
    2250       1     2368    5.479452050E-04
    2251       1     2369    5.479452050E-04
    2252       1     2370    5.479452050E-04
    2253       1     2371    5.479452050E-04
    2254       1     2372    5.479452050E-04
    2255       1     2373    5.479452050E-04
    2256       1     2374    5.479452050E-04
    2257       1     2375    5.479452050E-04
    2258       1     2376    5.479452050E-04
    2259       1     2377    5.479452050E-04
    2260       1     2378    5.479452050E-04
    2261       1     2379    5.479452050E-04
    2262       1     2380    5.479452050E-04
    2263       1     2381    5.479452050E-04
    2264       1     2382    5.479452050E-04
    2265       1     2383    5.479452050E-04
    2266       1     2384    5.479452050E-04
    2267       1     2385    5.479452050E-04
    2268       1     2386    5.479452050E-04
    2269       1     2387    5.479452050E-04
    2270       1     2388    5.479452050E-04
    2271       1     2389    5.479452050E-04
    2272       1     2390    5.479452050E-04
    2273       1     2391    5.479452050E-04
    2274       1     2392    5.479452050E-04
    2275       1     2393    5.479452050E-04
    2276       1     2394    5.479452050E-04
    2277       1     2395    5.479452050E-04
    2278       1     2396    5.479452050E-04
    2279       1     2397    5.479452050E-04
    2280       1     2398    5.479452050E-04
    2281       1     2399    5.479452050E-04
    2282       1     2400    5.479452050E-04
    2283       1     2401    5.479452050E-04
    2284       1     2402    5.479452050E-04
    2285       1     2405    5.479452050E-04
    2286       1     2406    5.479452050E-04
    2287       1     2407    5.479452050E-04
    2288       1     2408    5.479452050E-04
    2289       1     2409    5.479452050E-04
    2290       1     2410    5.479452050E-04
    2291       1     2411    5.479452050E-04
    2292       1     2412    5.479452050E-04
    2293       1     2413    5.479452050E-04
    2294       1     2414    5.479452050E-04
    2295       1     2415    5.479452050E-04
    2296       1     2416    5.479452050E-04
    2297       1     2417    5.479452050E-04
    2298       1     2418    5.479452050E-04
    2299       1     2419    5.479452050E-04
    2300       1     2420    5.479452050E-04
    2301       1     2421    5.479452050E-04
    2302       1     2422    5.479452050E-04
    2303       1     2423    5.479452050E-04
    2304       1     2424    5.479452050E-04
    2305       1     2425    5.479452050E-04
    2306       1     2426    5.479452050E-04
    2307       1     2427    5.479452050E-04
    2308       1     2428    5.479452050E-04
    2309       1     2429    5.479452050E-04
    2310       1     2430    5.479452050E-04
    2311       1     2431    5.479452050E-04
    2312       1     2432    5.479452050E-04
    2313       1     2433    5.479452050E-04
    2314       1     2434    5.479452050E-04
    2315       1     2435    5.479452050E-04
    2316       1     2436    5.479452050E-04
    2317       1     2437    5.479452050E-04
    2318       1     2438    5.479452050E-04
    2319       1     2439    5.479452050E-04
    2320       1     2440    5.479452050E-04
    2321       1     2441    5.479452050E-04
    2322       1     2442    5.479452050E-04
    2323       1     2443    5.479452050E-04
    2324       1     2444    5.479452050E-04
    2325       1     2445    5.479452050E-04
    2326       1     2446    5.479452050E-04
    2327       1     2447    5.479452050E-04
    2328       1     2448    5.479452050E-04
    2329       1     2449    5.479452050E-04
    2330       1     2450    5.479452050E-04
    2331       1     2451    5.479452050E-04
    2332       1     2452    5.479452050E-04
    2333       1     2453    5.479452050E-04
    2334       1     2454    5.479452050E-04
    2335       1     2455    5.479452050E-04
    2336       1     2456    5.479452050E-04
    2337       1     2457    5.479452050E-04
    2338       1     2458    5.479452050E-04
    2339       1     2459    5.479452050E-04
    2340       1     2460    5.479452050E-04
    2341       1     2461    5.479452050E-04
    2342       1     2462    5.479452050E-04
    2343       1     2463    5.479452050E-04
    2344       1     2464    5.479452050E-04
    2345       1     2465    5.479452050E-04
    2346       1     2466    5.479452050E-04
    2347       1     2467    5.479452050E-04
    2348       1     2468    5.479452050E-04
    2349       1     2469    5.479452050E-04
    2350       1     2470    5.479452050E-04
    2351       1     2471    5.479452050E-04
    2352       1     2472    5.479452050E-04
    2353       1     2473    5.479452050E-04
    2354       1     2474    5.479452050E-04
    2355       1     2475    5.479452050E-04
    2356       1     2476    5.479452050E-04
    2357       1     2477    5.479452050E-04
    2358       1     2478    5.479452050E-04
    2359       1     2479    5.479452050E-04
    2360       1     2480    5.479452050E-04
    2361       1     2481    5.479452050E-04
    2362       1     2482    5.479452050E-04
    2363       1     2483    5.479452050E-04
    2364       1     2484    5.479452050E-04
    2365       1     2485    5.479452050E-04
    2366       1     2486    5.479452050E-04
    2367       1     2489    5.479452050E-04
    2368       1     2490    5.479452050E-04
    2369       1     2491    5.479452050E-04
    2370       1     2492    5.479452050E-04
    2371       1     2493    5.479452050E-04
    2372       1     2494    5.479452050E-04
    2373       1     2495    5.479452050E-04
    2374       1     2496    5.479452050E-04
    2375       1     2497    5.479452050E-04
    2376       1     2498    5.479452050E-04
    2377       1     2499    5.479452050E-04
    2378       1     2500    5.479452050E-04
    2379       1     2501    5.479452050E-04
    2380       1     2502    5.479452050E-04
    2381       1     2503    5.479452050E-04
    2382       1     2504    5.479452050E-04
    2383       1     2505    5.479452050E-04
    2384       1     2506    5.479452050E-04
    2385       1     2507    5.479452050E-04
    2386       1     2508    5.479452050E-04
    2387       1     2509    5.479452050E-04
    2388       1     2510    5.479452050E-04
    2389       1     2511    5.479452050E-04
    2390       1     2512    5.479452050E-04
    2391       1     2513    5.479452050E-04
    2392       1     2514    5.479452050E-04
    2393       1     2515    5.479452050E-04
    2394       1     2516    5.479452050E-04
    2395       1     2517    5.479452050E-04
    2396       1     2518    5.479452050E-04
    2397       1     2519    5.479452050E-04
    2398       1     2520    5.479452050E-04
    2399       1     2521    5.479452050E-04
    2400       1     2522    5.479452050E-04
    2401       1     2523    5.479452050E-04
    2402       1     2524    5.479452050E-04
    2403       1     2525    5.479452050E-04
    2404       1     2526    5.479452050E-04
    2405       1     2527    5.479452050E-04
    2406       1     2528    5.479452050E-04
    2407       1     2529    5.479452050E-04
    2408       1     2530    5.479452050E-04
    2409       1     2531    5.479452050E-04
    2410       1     2532    5.479452050E-04
    2411       1     2533    5.479452050E-04
    2412       1     2534    5.479452050E-04
    2413       1     2535    5.479452050E-04
    2414       1     2536    5.479452050E-04
    2415       1     2537    5.479452050E-04
    2416       1     2538    5.479452050E-04
    2417       1     2539    5.479452050E-04
    2418       1     2540    5.479452050E-04
    2419       1     2541    5.479452050E-04
    2420       1     2542    5.479452050E-04
    2421       1     2543    5.479452050E-04
    2422       1     2544    5.479452050E-04
    2423       1     2545    5.479452050E-04
    2424       1     2546    5.479452050E-04
    2425       1     2547    5.479452050E-04
    2426       1     2548    5.479452050E-04
    2427       1     2549    5.479452050E-04
    2428       1     2550    5.479452050E-04
    2429       1     2551    5.479452050E-04
    2430       1     2552    5.479452050E-04
    2431       1     2553    5.479452050E-04
    2432       1     2554    5.479452050E-04
    2433       1     2555    5.479452050E-04
    2434       1     2556    5.479452050E-04
    2435       1     2557    5.479452050E-04
    2436       1     2558    5.479452050E-04
    2437       1     2559    5.479452050E-04
    2438       1     2560    5.479452050E-04
    2439       1     2561    5.479452050E-04
    2440       1     2562    5.479452050E-04
    2441       1     2563    5.479452050E-04
    2442       1     2567    5.479452050E-04
    2443       1     2568    5.479452050E-04
    2444       1     2569    5.479452050E-04
    2445       1     2570    5.479452050E-04
    2446       1     2571    5.479452050E-04
    2447       1     2572    5.479452050E-04
    2448       1     2573    5.479452050E-04
    2449       1     2574    5.479452050E-04
    2450       1     2575    5.479452050E-04
    2451       1     2576    5.479452050E-04
    2452       1     2577    5.479452050E-04
    2453       1     2578    5.479452050E-04
    2454       1     2579    5.479452050E-04
    2455       1     2580    5.479452050E-04
    2456       1     2581    5.479452050E-04
    2457       1     2582    5.479452050E-04
    2458       1     2583    5.479452050E-04
    2459       1     2584    5.479452050E-04
    2460       1     2585    5.479452050E-04
    2461       1     2586    5.479452050E-04
    2462       1     2587    5.479452050E-04
    2463       1     2588    5.479452050E-04
    2464       1     2589    5.479452050E-04
    2465       1     2590    5.479452050E-04
    2466       1     2591    5.479452050E-04
    2467       1     2592    5.479452050E-04
    2468       1     2593    5.479452050E-04
    2469       1     2594    5.479452050E-04
    2470       1     2595    5.479452050E-04
    2471       1     2596    5.479452050E-04
    2472       1     2597    5.479452050E-04
    2473       1     2598    5.479452050E-04
    2474       1     2599    5.479452050E-04
    2475       1     2600    5.479452050E-04
    2476       1     2601    5.479452050E-04
    2477       1     2602    5.479452050E-04
    2478       1     2603    5.479452050E-04
    2479       1     2604    5.479452050E-04
    2480       1     2605    5.479452050E-04
    2481       1     2606    5.479452050E-04
    2482       1     2607    5.479452050E-04
    2483       1     2608    5.479452050E-04
    2484       1     2609    5.479452050E-04
    2485       1     2610    5.479452050E-04
    2486       1     2611    5.479452050E-04
    2487       1     2612    5.479452050E-04
    2488       1     2613    5.479452050E-04
    2489       1     2614    5.479452050E-04
    2490       1     2615    5.479452050E-04
    2491       1     2616    5.479452050E-04
    2492       1     2617    5.479452050E-04
    2493       1     2618    5.479452050E-04
    2494       1     2619    5.479452050E-04
    2495       1     2620    5.479452050E-04
    2496       1     2621    5.479452050E-04
    2497       1     2622    5.479452050E-04
    2498       1     2623    5.479452050E-04
    2499       1     2624    5.479452050E-04
    2500       1     2625    5.479452050E-04
    2501       1     2626    5.479452050E-04
    2502       1     2627    5.479452050E-04
    2503       1     2628    5.479452050E-04
    2504       1     2629    5.479452050E-04
    2505       1     2630    5.479452050E-04
    2506       1     2631    5.479452050E-04
    2507       1     2632    5.479452050E-04
    2508       1     2633    5.479452050E-04
    2509       1     2634    5.479452050E-04
    2510       1     2637    5.479452050E-04
    2511       1     2638    5.479452050E-04
    2512       1     2639    5.479452050E-04
    2513       1     2640    5.479452050E-04
    2514       1     2641    5.479452050E-04
    2515       1     2642    5.479452050E-04
    2516       1     2643    5.479452050E-04
    2517       1     2644    5.479452050E-04
    2518       1     2645    5.479452050E-04
    2519       1     2646    5.479452050E-04
    2520       1     2647    5.479452050E-04
    2521       1     2648    5.479452050E-04
    2522       1     2649    5.479452050E-04
    2523       1     2650    5.479452050E-04
    2524       1     2651    5.479452050E-04
    2525       1     2652    5.479452050E-04
    2526       1     2653    5.479452050E-04
    2527       1     2654    5.479452050E-04
    2528       1     2655    5.479452050E-04
    2529       1     2656    5.479452050E-04
    2530       1     2657    5.479452050E-04
    2531       1     2658    5.479452050E-04
    2532       1     2659    5.479452050E-04
    2533       1     2660    5.479452050E-04
    2534       1     2661    5.479452050E-04
    2535       1     2662    5.479452050E-04
    2536       1     2663    5.479452050E-04
    2537       1     2664    5.479452050E-04
    2538       1     2665    5.479452050E-04
    2539       1     2666    5.479452050E-04
    2540       1     2667    5.479452050E-04
    2541       1     2668    5.479452050E-04
    2542       1     2669    5.479452050E-04
    2543       1     2670    5.479452050E-04
    2544       1     2671    5.479452050E-04
    2545       1     2672    5.479452050E-04
    2546       1     2673    5.479452050E-04
    2547       1     2674    5.479452050E-04
    2548       1     2675    5.479452050E-04
    2549       1     2676    5.479452050E-04
    2550       1     2677    5.479452050E-04
    2551       1     2678    5.479452050E-04
    2552       1     2679    5.479452050E-04
    2553       1     2680    5.479452050E-04
    2554       1     2681    5.479452050E-04
    2555       1     2682    5.479452050E-04
    2556       1     2683    5.479452050E-04
    2557       1     2684    5.479452050E-04
    2558       1     2685    5.479452050E-04
    2559       1     2686    5.479452050E-04
    2560       1     2687    5.479452050E-04
    2561       1     2688    5.479452050E-04
    2562       1     2689    5.479452050E-04
    2563       1     2690    5.479452050E-04
    2564       1     2691    5.479452050E-04
    2565       1     2692    5.479452050E-04
    2566       1     2693    5.479452050E-04
    2567       1     2694    5.479452050E-04
    2568       1     2695    5.479452050E-04
    2569       1     2696    5.479452050E-04
    2570       1     2697    5.479452050E-04
    2571       1     2698    5.479452050E-04
    2572       1     2699    5.479452050E-04
    2573       1     2700    5.479452050E-04
    2574       1     2701    5.479452050E-04
    2575       1     2702    5.479452050E-04
    2576       1     2703    5.479452050E-04
    2577       1     2706    5.479452050E-04
    2578       1     2707    5.479452050E-04
    2579       1     2708    5.479452050E-04
    2580       1     2709    5.479452050E-04
    2581       1     2710    5.479452050E-04
    2582       1     2711    5.479452050E-04
    2583       1     2712    5.479452050E-04
    2584       1     2713    5.479452050E-04
    2585       1     2714    5.479452050E-04
    2586       1     2715    5.479452050E-04
    2587       1     2716    5.479452050E-04
    2588       1     2717    5.479452050E-04
    2589       1     2718    5.479452050E-04
    2590       1     2719    5.479452050E-04
    2591       1     2720    5.479452050E-04
    2592       1     2721    5.479452050E-04
    2593       1     2722    5.479452050E-04
    2594       1     2723    5.479452050E-04
    2595       1     2724    5.479452050E-04
    2596       1     2725    5.479452050E-04
    2597       1     2726    5.479452050E-04
    2598       1     2727    5.479452050E-04
    2599       1     2728    5.479452050E-04
    2600       1     2729    5.479452050E-04
    2601       1     2730    5.479452050E-04
    2602       1     2731    5.479452050E-04
    2603       1     2732    5.479452050E-04
    2604       1     2733    5.479452050E-04
    2605       1     2734    5.479452050E-04
    2606       1     2735    5.479452050E-04
    2607       1     2736    5.479452050E-04
    2608       1     2737    5.479452050E-04
    2609       1     2738    5.479452050E-04
    2610       1     2739    5.479452050E-04
    2611       1     2740    5.479452050E-04
    2612       1     2741    5.479452050E-04
    2613       1     2742    5.479452050E-04
    2614       1     2743    5.479452050E-04
    2615       1     2744    5.479452050E-04
    2616       1     2745    5.479452050E-04
    2617       1     2746    5.479452050E-04
    2618       1     2747    5.479452050E-04
    2619       1     2748    5.479452050E-04
    2620       1     2749    5.479452050E-04
    2621       1     2750    5.479452050E-04
    2622       1     2751    5.479452050E-04
    2623       1     2752    5.479452050E-04
    2624       1     2753    5.479452050E-04
    2625       1     2754    5.479452050E-04
    2626       1     2755    5.479452050E-04
    2627       1     2756    5.479452050E-04
    2628       1     2757    5.479452050E-04
    2629       1     2758    5.479452050E-04
    2630       1     2759    5.479452050E-04
    2631       1     2760    5.479452050E-04
    2632       1     2761    5.479452050E-04
    2633       1     2762    5.479452050E-04
    2634       1     2763    5.479452050E-04
    2635       1     2764    5.479452050E-04
    2636       1     2765    5.479452050E-04
    2637       1     2766    5.479452050E-04
    2638       1     2767    5.479452050E-04
    2639       1     2768    5.479452050E-04
    2640       1     2769    5.479452050E-04
    2641       1     2770    5.479452050E-04
    2642       1     2771    5.479452050E-04
    2643       1     2772    5.479452050E-04
    2644       1     2773    5.479452050E-04
    2645       1     2774    5.479452050E-04
    2646       1     2775    5.479452050E-04
    2647       1     2776    5.479452050E-04
    2648       1     2777    5.479452050E-04
    2649       1     2778    5.479452050E-04
    2650       1     2779    5.479452050E-04
    2651       1     2780    5.479452050E-04
    2652       1     2781    5.479452050E-04
    2653       1     2782    5.479452050E-04
    2654       1     2783    5.479452050E-04
    2655       1     2786    5.479452050E-04
    2656       1     2787    5.479452050E-04
    2657       1     2788    5.479452050E-04
    2658       1     2789    5.479452050E-04
    2659       1     2790    5.479452050E-04
    2660       1     2791    5.479452050E-04
    2661       1     2792    5.479452050E-04
    2662       1     2793    5.479452050E-04
    2663       1     2794    5.479452050E-04
    2664       1     2795    5.479452050E-04
    2665       1     2796    5.479452050E-04
    2666       1     2797    5.479452050E-04
    2667       1     2798    5.479452050E-04
    2668       1     2799    5.479452050E-04
    2669       1     2800    5.479452050E-04
    2670       1     2801    5.479452050E-04
    2671       1     2802    5.479452050E-04
    2672       1     2803    5.479452050E-04
    2673       1     2804    5.479452050E-04
    2674       1     2805    5.479452050E-04
    2675       1     2806    5.479452050E-04
    2676       1     2807    5.479452050E-04
    2677       1     2808    5.479452050E-04
    2678       1     2809    5.479452050E-04
    2679       1     2810    5.479452050E-04
    2680       1     2811    5.479452050E-04
    2681       1     2812    5.479452050E-04
    2682       1     2813    5.479452050E-04
    2683       1     2814    5.479452050E-04
    2684       1     2815    5.479452050E-04
    2685       1     2816    5.479452050E-04
    2686       1     2817    5.479452050E-04
    2687       1     2818    5.479452050E-04
    2688       1     2819    5.479452050E-04
    2689       1     2820    5.479452050E-04
    2690       1     2821    5.479452050E-04
    2691       1     2822    5.479452050E-04
    2692       1     2823    5.479452050E-04
    2693       1     2824    5.479452050E-04
    2694       1     2825    5.479452050E-04
    2695       1     2826    5.479452050E-04
    2696       1     2827    5.479452050E-04
    2697       1     2828    5.479452050E-04
    2698       1     2829    5.479452050E-04
    2699       1     2830    5.479452050E-04
    2700       1     2831    5.479452050E-04
    2701       1     2832    5.479452050E-04
    2702       1     2833    5.479452050E-04
    2703       1     2834    5.479452050E-04
    2704       1     2835    5.479452050E-04
    2705       1     2836    5.479452050E-04
    2706       1     2837    5.479452050E-04
    2707       1     2838    5.479452050E-04
    2708       1     2839    5.479452050E-04
    2709       1     2840    5.479452050E-04
    2710       1     2841    5.479452050E-04
    2711       1     2842    5.479452050E-04
    2712       1     2843    5.479452050E-04
    2713       1     2844    5.479452050E-04
    2714       1     2845    5.479452050E-04
    2715       1     2846    5.479452050E-04
    2716       1     2847    5.479452050E-04
    2717       1     2848    5.479452050E-04
    2718       1     2849    5.479452050E-04
    2719       1     2850    5.479452050E-04
    2720       1     2851    5.479452050E-04
    2721       1     2852    5.479452050E-04
    2722       1     2853    5.479452050E-04
    2723       1     2854    5.479452050E-04
    2724       1     2857    5.479452050E-04
    2725       1     2858    5.479452050E-04
    2726       1     2859    5.479452050E-04
    2727       1     2860    5.479452050E-04
    2728       1     2861    5.479452050E-04
    2729       1     2862    5.479452050E-04
    2730       1     2863    5.479452050E-04
    2731       1     2864    5.479452050E-04
    2732       1     2865    5.479452050E-04
    2733       1     2866    5.479452050E-04
    2734       1     2867    5.479452050E-04
    2735       1     2868    5.479452050E-04
    2736       1     2869    5.479452050E-04
    2737       1     2870    5.479452050E-04
    2738       1     2871    5.479452050E-04
    2739       1     2872    5.479452050E-04
    2740       1     2873    5.479452050E-04
    2741       1     2874    5.479452050E-04
    2742       1     2875    5.479452050E-04
    2743       1     2876    5.479452050E-04
    2744       1     2877    5.479452050E-04
    2745       1     2878    5.479452050E-04
    2746       1     2879    5.479452050E-04
    2747       1     2880    5.479452050E-04
    2748       1     2881    5.479452050E-04
    2749       1     2882    5.479452050E-04
    2750       1     2883    5.479452050E-04
    2751       1     2884    5.479452050E-04
    2752       1     2885    5.479452050E-04
    2753       1     2886    5.479452050E-04
    2754       1     2887    5.479452050E-04
    2755       1     2888    5.479452050E-04
    2756       1     2889    5.479452050E-04
    2757       1     2890    5.479452050E-04
    2758       1     2891    5.479452050E-04
    2759       1     2892    5.479452050E-04
    2760       1     2893    5.479452050E-04
    2761       1     2894    5.479452050E-04
    2762       1     2895    5.479452050E-04
    2763       1     2896    5.479452050E-04
    2764       1     2897    5.479452050E-04
    2765       1     2898    5.479452050E-04
    2766       1     2899    5.479452050E-04
    2767       1     2900    5.479452050E-04
    2768       1     2901    5.479452050E-04
    2769       1     2902    5.479452050E-04
    2770       1     2903    5.479452050E-04
    2771       1     2904    5.479452050E-04
    2772       1     2905    5.479452050E-04
    2773       1     2906    5.479452050E-04
    2774       1     2907    5.479452050E-04
    2775       1     2908    5.479452050E-04
    2776       1     2909    5.479452050E-04
    2777       1     2910    5.479452050E-04
    2778       1     2911    5.479452050E-04
    2779       1     2912    5.479452050E-04
    2780       1     2913    5.479452050E-04
    2781       1     2914    5.479452050E-04
    2782       1     2915    5.479452050E-04
    2783       1     2916    5.479452050E-04
    2784       1     2917    5.479452050E-04
    2785       1     2918    5.479452050E-04
    2786       1     2919    5.479452050E-04
    2787       1     2922    5.479452050E-04
    2788       1     2923    5.479452050E-04
    2789       1     2924    5.479452050E-04
    2790       1     2925    5.479452050E-04
    2791       1     2926    5.479452050E-04
    2792       1     2927    5.479452050E-04
    2793       1     2928    5.479452050E-04
    2794       1     2929    5.479452050E-04
    2795       1     2930    5.479452050E-04
    2796       1     2931    5.479452050E-04
    2797       1     2932    5.479452050E-04
    2798       1     2933    5.479452050E-04
    2799       1     2934    5.479452050E-04
    2800       1     2935    5.479452050E-04
    2801       1     2936    5.479452050E-04
    2802       1     2937    5.479452050E-04
    2803       1     2938    5.479452050E-04
    2804       1     2939    5.479452050E-04
    2805       1     2940    5.479452050E-04
    2806       1     2941    5.479452050E-04
    2807       1     2942    5.479452050E-04
    2808       1     2943    5.479452050E-04
    2809       1     2944    5.479452050E-04
    2810       1     2945    5.479452050E-04
    2811       1     2946    5.479452050E-04
    2812       1     2947    5.479452050E-04
    2813       1     2948    5.479452050E-04
    2814       1     2949    5.479452050E-04
    2815       1     2950    5.479452050E-04
    2816       1     2951    5.479452050E-04
    2817       1     2952    5.479452050E-04
    2818       1     2953    5.479452050E-04
    2819       1     2954    5.479452050E-04
    2820       1     2955    5.479452050E-04
    2821       1     2956    5.479452050E-04
    2822       1     2957    5.479452050E-04
    2823       1     2958    5.479452050E-04
    2824       1     2959    5.479452050E-04
    2825       1     2960    5.479452050E-04
    2826       1     2961    5.479452050E-04
    2827       1     2962    5.479452050E-04
    2828       1     2963    5.479452050E-04
    2829       1     2964    5.479452050E-04
    2830       1     2965    5.479452050E-04
    2831       1     2966    5.479452050E-04
    2832       1     2967    5.479452050E-04
    2833       1     2968    5.479452050E-04
    2834       1     2969    5.479452050E-04
    2835       1     2972    5.479452050E-04
    2836       1     2973    5.479452050E-04
    2837       1     2974    5.479452050E-04
    2838       1     2975    5.479452050E-04
    2839       1     2976    5.479452050E-04
    2840       1     2977    5.479452050E-04
    2841       1     2978    5.479452050E-04
    2842       1     2979    5.479452050E-04
    2843       1     2980    5.479452050E-04
    2844       1     2981    5.479452050E-04
    2845       1     2982    5.479452050E-04
    2846       1     2983    5.479452050E-04
    2847       1     2984    5.479452050E-04
    2848       1     2985    5.479452050E-04
    2849       1     2986    5.479452050E-04
    2850       1     2987    5.479452050E-04
    2851       1     2988    5.479452050E-04
    2852       1     2989    5.479452050E-04
    2853       1     2990    5.479452050E-04
    2854       1     2991    5.479452050E-04
    2855       1     2992    5.479452050E-04
    2856       1     2993    5.479452050E-04
    2857       1     2994    5.479452050E-04
    2858       1     2995    5.479452050E-04
    2859       1     2996    5.479452050E-04
    2860       1     2997    5.479452050E-04
    2861       1     2998    5.479452050E-04
    2862       1     2999    5.479452050E-04
    2863       1     3000    5.479452050E-04
    2864       1     3001    5.479452050E-04
    2865       1     3002    5.479452050E-04
    2866       1     3003    5.479452050E-04
    2867       1     3004    5.479452050E-04
    2868       1     3005    5.479452050E-04
    2869       1     3006    5.479452050E-04
    2870       1     3007    5.479452050E-04
    2871       1     3008    5.479452050E-04
    2872       1     3009    5.479452050E-04
    2873       1     3010    5.479452050E-04
    2874       1     3011    5.479452050E-04
    2875       1     3012    5.479452050E-04
    2876       1     3013    5.479452050E-04
    2877       1     3014    5.479452050E-04
    2878       1     3019    5.479452050E-04
    2879       1     3020    5.479452050E-04
    2880       1     3021    5.479452050E-04
    2881       1     3022    5.479452050E-04
    2882       1     3023    5.479452050E-04
    2883       1     3024    5.479452050E-04
    2884       1     3025    5.479452050E-04
    2885       1     3026    5.479452050E-04
    2886       1     3027    5.479452050E-04
    2887       1     3028    5.479452050E-04
    2888       1     3029    5.479452050E-04
    2889       1     3030    5.479452050E-04
    2890       1     3031    5.479452050E-04
    2891       1     3032    5.479452050E-04
    2892       1     3033    5.479452050E-04
    2893       1     3034    5.479452050E-04
    2894       1     3035    5.479452050E-04
    2895       1     3036    5.479452050E-04
    2896       1     3037    5.479452050E-04
    2897       1     3038    5.479452050E-04
    2898       1     3039    5.479452050E-04
    2899       1     3040    5.479452050E-04
    2900       1     3041    5.479452050E-04
    2901       1     3042    5.479452050E-04
    2902       1     3043    5.479452050E-04
    2903       1     3044    5.479452050E-04
    2904       1     3045    5.479452050E-04
    2905       1     3046    5.479452050E-04
    2906       1     3047    5.479452050E-04
    2907       1     3048    5.479452050E-04
    2908       1     3049    5.479452050E-04
    2909       1     3050    5.479452050E-04
    2910       1     3051    5.479452050E-04
    2911       1     3052    5.479452050E-04
    2912       1     3053    5.479452050E-04
    2913       1     3054    5.479452050E-04
    2914       1     3062    5.479452050E-04
    2915       1     3063    5.479452050E-04
    2916       1     3064    5.479452050E-04
    2917       1     3065    5.479452050E-04
    2918       1     3066    5.479452050E-04
    2919       1     3067    5.479452050E-04
    2920       1     3068    5.479452050E-04
    2921       1     3069    5.479452050E-04
    2922       1     3070    5.479452050E-04
    2923       1     3071    5.479452050E-04
    2924       1     3072    5.479452050E-04
    2925       1     3073    5.479452050E-04
    2926       1     3074    5.479452050E-04
    2927       1     3075    5.479452050E-04
    2928       1     3076    5.479452050E-04
    2929       1     3077    5.479452050E-04
    2930       1     3098    5.479452050E-04
    2931       1     3099    5.479452050E-04
    2932       1     3100    5.479452050E-04
    2933       1     3101    5.479452050E-04
    2934       1     3102    5.479452050E-04
    2935       1     3103    5.479452050E-04
    2936       1     3104    5.479452050E-04
    2937       1     3105    5.479452050E-04
    2938       1     3106    5.479452050E-04
    2939       1     3107    5.479452050E-04
    2940       1     3108    5.479452050E-04
    2941       1     3109    5.479452050E-04
    2942       1     3110    5.479452050E-04
    2943       1     3111    5.479452050E-04
    2944       1     3113    5.479452050E-04
    2945       1     3114    5.479452050E-04
    2946       1     3115    5.479452050E-04
    2947       1     3116    5.479452050E-04
    2948       1     3117    5.479452050E-04
    2949       1     3118    5.479452050E-04
    2950       1     3119    5.479452050E-04
    2951       1     3120    5.479452050E-04
    2952       1     3121    5.479452050E-04
    2953       1     3122    5.479452050E-04
    2954       1     3123    5.479452050E-04
    2955       1     3124    5.479452050E-04
 -------------------------------------------



 CELL CONVERSIONS FOR ITER.=2  STEP=1  PERIOD=1   (NODE or LRC)
     DRY             (1,334) DRY             (1,335) DRY             (1,336) DRY             (1,337) DRY             (1,338)
     DRY             (1,339) DRY             (1,413) DRY             (1,414) DRY             (1,415) DRY             (1,487)
     DRY             (1,488) DRY             (1,489) DRY             (1,490) DRY             (1,565) DRY             (1,566)
     DRY             (1,567) DRY             (1,568) DRY             (1,569) DRY             (1,645) DRY             (1,646)
     DRY             (1,647) DRY             (1,648) DRY             (1,649) DRY             (1,650) DRY             (1,659)
     DRY             (1,726) DRY             (1,727) DRY             (1,728) DRY             (1,729) DRY             (1,730)
     DRY             (1,731) DRY             (1,734) DRY             (1,738) DRY             (1,740) DRY             (1,741)
     DRY             (1,808) DRY             (1,809) DRY             (1,810) DRY             (1,811) DRY             (1,812)
     DRY             (1,813) DRY             (1,821) DRY             (1,822) DRY             (1,823) DRY             (1,892)
     DRY             (1,893) DRY             (1,894) DRY             (1,895) DRY             (1,896) DRY             (1,902)
     DRY             (1,903) DRY             (1,904) DRY             (1,905) DRY             (1,906) DRY             (1,976)
     DRY             (1,977) DRY             (1,978) DRY             (1,979) DRY             (1,980) DRY             (1,981)
     DRY             (1,982) DRY             (1,983) DRY             (1,984) DRY             (1,985) DRY             (1,986)
     DRY             (1,987) DRY             (1,988) DRY             (1,989) DRY            (1,1057) DRY            (1,1058)
     DRY            (1,1059) DRY            (1,1060) DRY            (1,1061) DRY            (1,1062) DRY            (1,1063)
     DRY            (1,1064) DRY            (1,1065) DRY            (1,1066) DRY            (1,1067) DRY            (1,1068)
     DRY            (1,1069) DRY            (1,1138) DRY            (1,1139) DRY            (1,1140) DRY            (1,1141)
     DRY            (1,1142) DRY            (1,1143) DRY            (1,1144) DRY            (1,1145) DRY            (1,1146)
     DRY            (1,1147) DRY            (1,1148) DRY            (1,1223) DRY            (1,1224) DRY            (1,1225)
     DRY            (1,1226) DRY            (1,1227) DRY            (1,1229) DRY            (1,1230) DRY            (1,1231)
     DRY            (1,1232) DRY            (1,1305) DRY            (1,1310) DRY            (1,1311) DRY            (1,1312)
     DRY            (1,1389) DRY            (1,1390) DRY            (1,1391) DRY            (1,1476) DRY            (1,1477)
     DRY            (1,1478) DRY            (1,1569) DRY            (1,1570) DRY            (1,1571) DRY            (1,1679)
     DRY            (1,1680) DRY            (1,1681) DRY            (1,1682) DRY            (1,1683) DRY            (1,1763)
     DRY            (1,1764) DRY            (1,1765) DRY            (1,1766) DRY            (1,1767) DRY            (1,1841)
     DRY            (1,1842) DRY            (1,1843) DRY            (1,1844) DRY            (1,1917) DRY            (1,1918)
     DRY            (1,1919) DRY            (1,1920) DRY            (1,1987) DRY            (1,1988) DRY            (1,1989)
     DRY            (1,1990) DRY            (1,1992) DRY            (1,1993) DRY            (1,1994) DRY            (1,1995)
     DRY            (1,1996) DRY            (1,2058) DRY            (1,2059) DRY            (1,2060) DRY            (1,2061)
     DRY            (1,2062) DRY            (1,2063) DRY            (1,2064) DRY            (1,2065) DRY            (1,2066)
     DRY            (1,2067) DRY            (1,2128) DRY            (1,2129) DRY            (1,2130) DRY            (1,2131)
     DRY            (1,2132) DRY            (1,2133) DRY            (1,2134) DRY            (1,2135) DRY            (1,2136)
     DRY            (1,2137) DRY            (1,2197) DRY            (1,2198) DRY            (1,2199) DRY            (1,2200)
     DRY            (1,2201) DRY            (1,2202) DRY            (1,2203) DRY            (1,2204) DRY            (1,2205)
     DRY            (1,2206) DRY            (1,2269) DRY            (1,2270) DRY            (1,2271) DRY            (1,2272)
     DRY            (1,2273) DRY            (1,2274) DRY            (1,2275) DRY            (1,2276) DRY            (1,2277)
     DRY            (1,2278) DRY            (1,2279) DRY            (1,2280) DRY            (1,2281) DRY            (1,2282)
     DRY            (1,2283) DRY            (1,2284) DRY            (1,2285) DRY            (1,2372) DRY            (1,2373)
     DRY            (1,2374) DRY            (1,2375) DRY            (1,2376) DRY            (1,2377) DRY            (1,2378)
     DRY            (1,2379) DRY            (1,2380) DRY            (1,2381) DRY            (1,2469) DRY            (1,2470)
     DRY            (1,2471) DRY            (1,2545) DRY            (1,2546) DRY            (1,2547) DRY            (1,2621)
     DRY            (1,2622) DRY            (1,2623) DRY            (1,2652) DRY            (1,2653) DRY            (1,2654)
     DRY            (1,2655) DRY            (1,2690) DRY            (1,2691) DRY            (1,2719) DRY            (1,2720)
     DRY            (1,2721) DRY            (1,2722) DRY            (1,2723) DRY            (1,2724) DRY            (1,2725)
     DRY            (1,2769) DRY            (1,2770) DRY            (1,2796) DRY            (1,2797) DRY            (1,2798)
     DRY            (1,2799) DRY            (1,2800) DRY            (1,2801) DRY            (1,2802) DRY            (1,2803)
     DRY            (1,2804) DRY            (1,2805) DRY            (1,2806) DRY            (1,2841) DRY            (1,2842)
     DRY            (1,2865) DRY            (1,2866) DRY            (1,2867) DRY            (1,2868) DRY            (1,2869)
     DRY            (1,2870) DRY            (1,2871) DRY            (1,2873) DRY            (1,2874) DRY            (1,2875)
     DRY            (1,2876) DRY            (1,2877) DRY            (1,2906) DRY            (1,2907) DRY            (1,2928)
     DRY            (1,2929) DRY            (1,2930) DRY            (1,2931) DRY            (1,2932) DRY            (1,2941)
     DRY            (1,2942) DRY            (1,2957) DRY            (1,2958) DRY            (1,2959) DRY            (1,2976)
     DRY            (1,2977) DRY            (1,2978) DRY            (1,2979) DRY            (1,2992) DRY            (1,2993)
     DRY            (1,2995) DRY            (1,2996) DRY            (1,2997) DRY            (1,2998) DRY            (1,2999)
     DRY            (1,3000) DRY            (1,3001) DRY            (1,3002) DRY            (1,3003) DRY            (1,3004)
     DRY            (1,3005) DRY            (1,3021) DRY            (1,3022) DRY            (1,3023) DRY            (1,3024)
     DRY            (1,3063) DRY            (1,3064) DRY            (1,3065) DRY            (1,3066) DRY            (1,3098)
     DRY            (1,3099) DRY            (1,3100) DRY            (1,3113) DRY            (1,3114) DRY            (1,3115)
     DRY            (1,3126) DRY            (1,3127)

 CELL CONVERSIONS FOR ITER.=3  STEP=1  PERIOD=1   (NODE or LRC)
     DRY             (1,333) DRY             (1,412) DRY             (1,486) DRY             (1,891) DRY             (1,975)
     DRY            (1,1056) DRY            (1,1137) DRY            (1,1221) DRY            (1,1222) DRY            (1,1228)
     DRY            (1,1303) DRY            (1,1304) DRY            (1,1306) DRY            (1,1307) DRY            (1,1308)
     DRY            (1,1309) DRY            (1,1384) DRY            (1,1385) DRY            (1,1386) DRY            (1,1388)
     DRY            (1,1471) DRY            (1,1472) DRY            (1,1475) DRY            (1,1566) DRY            (1,1567)
     DRY            (1,1568) DRY            (1,1678) DRY            (1,1761) DRY            (1,1762) DRY            (1,1837)
     DRY            (1,1838) DRY            (1,1839) DRY            (1,1840) DRY            (1,1912) DRY            (1,1913)
     DRY            (1,1914) DRY            (1,1915) DRY            (1,1916) DRY            (1,1986) DRY            (1,1991)
     DRY            (1,2057) DRY            (1,2126) DRY            (1,2127) DRY            (1,2196) DRY            (1,2268)
     DRY            (1,2368) DRY            (1,2369) DRY            (1,2370) DRY            (1,2371) DRY            (1,2467)
     DRY            (1,2468) DRY            (1,2507) DRY            (1,2508) DRY            (1,2509) DRY            (1,2544)
     DRY            (1,2584) DRY            (1,2585) DRY            (1,2586) DRY            (1,2651) DRY            (1,2656)
     DRY            (1,2657) DRY            (1,2689) DRY            (1,2718) DRY            (1,2726) DRY            (1,2768)
     DRY            (1,2795) DRY            (1,2807) DRY            (1,2840) DRY            (1,2864) DRY            (1,2878)
     DRY            (1,2904) DRY            (1,2905) DRY            (1,2927) DRY            (1,2943) DRY            (1,2944)
     DRY            (1,2952) DRY            (1,2954) DRY            (1,2955) DRY            (1,2956) DRY            (1,2994)
     DRY            (1,3097)

 CELL CONVERSIONS FOR ITER.=4  STEP=1  PERIOD=1   (NODE or LRC)
     DRY             (1,411) DRY             (1,564) DRY             (1,643) DRY             (1,644) DRY             (1,724)
     DRY             (1,725) DRY             (1,807) DRY             (1,974) DRY            (1,1055) DRY            (1,1136)
     DRY            (1,1220) DRY            (1,1302) DRY            (1,1383) DRY            (1,1387) DRY            (1,1470)
     DRY            (1,1473) DRY            (1,1474) DRY            (1,1565) DRY            (1,1677) DRY            (1,1760)
     DRY            (1,1836) DRY            (1,1911) DRY            (1,1985) DRY            (1,2056) DRY            (1,2195)
     DRY            (1,2265) DRY            (1,2266) DRY            (1,2267) DRY            (1,2364) DRY            (1,2365)
     DRY            (1,2366) DRY            (1,2367) DRY            (1,2510) DRY            (1,2583) DRY            (1,2587)
     DRY            (1,2620) DRY            (1,2658) DRY            (1,2717) DRY            (1,2727) DRY            (1,2808)
     DRY            (1,2839) DRY            (1,2879) DRY            (1,2902) DRY            (1,2903) DRY            (1,2946)
     DRY            (1,2947) DRY            (1,2948) DRY            (1,2949) DRY            (1,2950) DRY            (1,2951)
     DRY            (1,2953) DRY            (1,2975) DRY            (1,3062)

 CELL CONVERSIONS FOR ITER.=5  STEP=1  PERIOD=1   (NODE or LRC)
     DRY             (1,485) DRY             (1,563) DRY             (1,806) DRY             (1,890) DRY            (1,1382)
     DRY            (1,1469) DRY            (1,1676) DRY            (1,1759) DRY            (1,1835) DRY            (1,1910)
     DRY            (1,1984) DRY            (1,2125) DRY            (1,2360) DRY            (1,2361) DRY            (1,2362)
     DRY            (1,2363) DRY            (1,2424) DRY            (1,2425) DRY            (1,2426) DRY            (1,2466)
     DRY            (1,2506) DRY            (1,2543) DRY            (1,2582) DRY            (1,2588) DRY            (1,2619)
     DRY            (1,2650) DRY            (1,2659) DRY            (1,2688) DRY            (1,2728) DRY            (1,2837)
     DRY            (1,2838) DRY            (1,2880) DRY            (1,2900) DRY            (1,2945)

 CELL CONVERSIONS FOR ITER.=6  STEP=1  PERIOD=1   (NODE or LRC)
     DRY             (1,332) DRY            (1,1054) DRY            (1,1219) DRY            (1,1301) DRY            (1,1564)
     DRY            (1,2055) DRY            (1,2462) DRY            (1,2463) DRY            (1,2464) DRY            (1,2465)
     DRY            (1,2511) DRY            (1,2542) DRY            (1,2809) DRY            (1,2901)

 CELL CONVERSIONS FOR ITER.=7  STEP=1  PERIOD=1   (NODE or LRC)
     DRY             (1,410) DRY            (1,1135) DRY            (1,1834) DRY            (1,2427)

 CELL CONVERSIONS FOR ITER.=8  STEP=1  PERIOD=1   (NODE or LRC)
     DRY             (1,484) DRY            (1,1381) DRY            (1,1758) DRY            (1,2264) DRY            (1,2359)
     DRY            (1,2505) DRY            (1,2589) DRY            (1,2767) DRY            (1,2899)

 CELL CONVERSIONS FOR ITER.=9  STEP=1  PERIOD=1   (NODE or LRC)
     DRY            (1,1675) DRY            (1,1909) DRY            (1,2124) DRY            (1,2836)

 CELL CONVERSIONS FOR ITER.=10  STEP=1  PERIOD=1   (NODE or LRC)
     DRY             (1,973) DRY            (1,1468) DRY            (1,2054) DRY            (1,2428) DRY            (1,2729)
     DRY            (1,2887) DRY            (1,2889)

 CELL CONVERSIONS FOR ITER.=11  STEP=1  PERIOD=1   (NODE or LRC)
     DRY            (1,2429)
 UBDSV1 SAVING           STO-SS ON UNIT   1020 AT TIME STEP      1, STRESS PERIOD      1
 UBDSV1 SAVING           STO-SY ON UNIT   1020 AT TIME STEP      1, STRESS PERIOD      1
 UBDSV1 SAVING     FLOW-JA-FACE ON UNIT   1020 AT TIME STEP      1, STRESS PERIOD      1
 UBDSV06 SAVING              GHB IN MODEL EXPERIMENTAL     PACKAGE EXPERIMENTAL    CONNECTED TO MODEL EXPERIMENTAL     PACKAGE GHB              ON UNIT   1020 AT TIME STEP      1, STRESS PERIOD      1

 GHB PACKAGE (GHB) FLOW RATES   PERIOD      1   STEP        1
 --------------------------------------------------------------------
   NUMBER   CELLID                    RATE       NAME                
 --------------------------------------------------------------------
     32     (1,312)               183.10537      ORANGE              
     33     (1,313)               165.69463      ORANGE              
     34     (1,314)               152.90239      ORANGE              
     35     (1,315)               143.27576      ORANGE              
     36     (1,316)               135.48492      ORANGE              
     37     (1,317)               128.82721      ORANGE              
     38     (1,318)               122.96149      ORANGE              
     39     (1,319)               117.64379      ORANGE              
     40     (1,320)               112.86551      ORANGE              
     41     (1,321)               108.40999      ORANGE              
     42     (1,322)               104.20279      ORANGE              
     43     (1,323)               99.815903      ORANGE              
     44     (1,324)               95.462760      ORANGE              
     45     (1,325)               91.273215      ORANGE              
     46     (1,326)               87.176966      ORANGE              
     47     (1,327)               82.862682      ORANGE              
     48     (1,328)               77.906467      ORANGE              
     49     (1,329)               73.172085      ORANGE              
     50     (1,330)               68.890057      ORANGE              
     51     (1,331)               70.586507      ORANGE              
     68     (1,51)                88.420739      GOLD                
     69     (1,84)                83.050645      GOLD                
     70     (1,116)               78.074100      GOLD                
     71     (1,150)               72.622964      GOLD                
     72     (1,186)               66.131283      GOLD                
     73     (1,224)               57.624817      GOLD                
     74     (1,264)               44.520688      GOLD                
     75     (1,1)                 66.478028      YELLOWGREEN         
     76     (1,2)                 67.520638      YELLOWGREEN         
     77     (1,3)                 70.531734      YELLOWGREEN         
     78     (1,4)                 76.840176      YELLOWGREEN         
     79     (1,5)                 80.562269      YELLOWGREEN         
     80     (1,6)                 81.197484      YELLOWGREEN         
     81     (1,9)                 83.228801      YELLOWGREEN         
     82     (1,10)                75.502457      YELLOWGREEN         
     83     (1,11)                68.673856      YELLOWGREEN         
     84     (1,12)                62.639915      YELLOWGREEN         
     85     (1,13)                57.095774      YELLOWGREEN         
     86     (1,14)                51.872654      YELLOWGREEN         
     87     (1,15)                46.857029      YELLOWGREEN         
     88     (1,16)                42.009792      YELLOWGREEN         
     89     (1,17)                37.295911      YELLOWGREEN         
     90     (1,18)                32.685588      YELLOWGREEN         
     91     (1,19)                28.244671      YELLOWGREEN         
     92     (1,20)                23.989091      YELLOWGREEN         
     93     (1,21)                19.889327      YELLOWGREEN         
     94     (1,22)                16.062156      YELLOWGREEN         
     95     (1,23)                13.026985      YELLOWGREEN         
     96     (1,52)                0.36683000     LIMEGREEN           
     97     (1,85)                1.7470599      LIMEGREEN           
     98     (1,117)               2.8058353      LIMEGREEN           
     99     (1,151)               3.9156095      LIMEGREEN           
    100     (1,187)               5.2980250      LIMEGREEN           
    101     (1,265)              -23.462207      AQUA                
    102     (1,348)              -23.183821      AQUA                
    103     (1,429)              -22.892823      AQUA                
    104     (1,505)              -22.661549      AQUA                
    105     (1,585)              -22.492383      AQUA                
    106     (1,666)              -22.374957      AQUA                
    107     (1,748)              -22.298074      AQUA                
    108     (1,831)              -22.251041      AQUA                
    109     (1,914)              -22.229596      AQUA                
    110     (1,997)              -22.233952      AQUA                
    111     (1,1077)             -22.266668      AQUA                
    112     (1,1157)             -22.333845      AQUA                
    113     (1,1240)             -22.425817      AQUA                
    114     (1,1399)             -24.961754      DARKTURQUOISE       
    115     (1,1486)             -25.730396      DARKTURQUOISE       
    116     (1,1581)             -26.626993      DARKTURQUOISE       
    117     (1,1693)             -27.564172      DARKTURQUOISE       
    118     (1,1777)             -28.524774      DARKTURQUOISE       
    119     (1,1854)             -29.517450      DARKTURQUOISE       
    120     (1,1930)             -30.495839      DARKTURQUOISE       
    121     (1,2005)             -31.474890      DARKTURQUOISE       
    122     (1,2076)             -32.458939      DARKTURQUOISE       
    123     (1,2146)             -33.472326      DARKTURQUOISE       
    124     (1,2215)             -34.480954      DARKTURQUOISE       
    125     (1,2310)             -35.425095      DARKTURQUOISE       
    126     (1,2404)             -36.455283      DARKTURQUOISE       
    127     (1,2488)             -37.452035      DARKTURQUOISE       
    128     (1,2566)             -38.362885      DARKTURQUOISE       
    129     (1,2636)             -39.163701      DARKTURQUOISE       
    130     (1,2705)             -39.873669      DARKTURQUOISE       
    131     (1,2785)             -40.461173      DARKTURQUOISE       
    132     (1,2856)             -40.816553      DARKTURQUOISE       
    133     (1,2921)             -40.823406      DARKTURQUOISE       
    134     (1,2971)             -40.309468      DARKTURQUOISE       
    135     (1,3018)             -39.012151      DARKTURQUOISE       
    136     (1,3061)             -19.870983      DARKTURQUOISE       
 --------------------------------------------------------------------



 UBDSV06 SAVING              RCH IN MODEL EXPERIMENTAL     PACKAGE EXPERIMENTAL    CONNECTED TO MODEL EXPERIMENTAL     PACKAGE RCH              ON UNIT   1020 AT TIME STEP      1, STRESS PERIOD      1

 RCH PACKAGE (RCH) FLOW RATES   PERIOD      1   STEP        1
 -----------------------------------------------
   NUMBER   CELLID                    RATE      
 -----------------------------------------------
     1      (1,7)                 1.36966235E-02
     2      (1,8)                 1.36963559E-02
     3      (1,24)                5.47859589E-02
     4      (1,25)                5.47859589E-02
     5      (1,26)                5.47863602E-02
     6      (1,27)                5.47852900E-02
     7      (1,28)                5.47961258E-02
     8      (1,29)                1.36966235E-02
     9      (1,30)                1.36964897E-02
     10     (1,31)                1.36968910E-02
     11     (1,32)                1.36967573E-02
     12     (1,33)                1.36958208E-02
     13     (1,34)                1.36966235E-02
     14     (1,35)                1.36963559E-02
     15     (1,36)                1.36983626E-02
     16     (1,37)                5.47688356E-02
     17     (1,38)                5.48141855E-02
     18     (1,39)                5.48250214E-02
     19     (1,40)                5.47860926E-02
     20     (1,41)                5.47859589E-02
     21     (1,42)                5.47860926E-02
     22     (1,43)                5.47860926E-02
     23     (1,44)                5.47859589E-02
     24     (1,45)                5.47855575E-02
     25     (1,46)                5.47854238E-02
     26     (1,47)                5.48246200E-02
     27     (1,48)                5.48242187E-02
     28     (1,49)                5.47863602E-02
     29     (1,50)                5.47889019E-02
     30     (1,53)                5.48248876E-02
     31     (1,54)                5.47858251E-02
     32     (1,55)                5.47860926E-02
     33     (1,56)                5.47854238E-02
     34     (1,57)                5.47856913E-02
     35     (1,58)                5.48073630E-02
     36     (1,59)                1.36979612E-02
     37     (1,60)                1.36963559E-02
     38     (1,61)                1.36968910E-02
     39     (1,62)                1.36968910E-02
     40     (1,63)                1.36966235E-02
     41     (1,64)                1.36966235E-02
     42     (1,65)                1.36960884E-02
     43     (1,66)                1.36959546E-02
     44     (1,67)                1.36962222E-02
     45     (1,68)                1.36956871E-02
     46     (1,69)                1.36963559E-02
     47     (1,70)                1.36968910E-02
     48     (1,71)                5.48050888E-02
     49     (1,72)                5.48243525E-02
     50     (1,73)                5.47859589E-02
     51     (1,74)                5.47852900E-02
     52     (1,75)                5.47859589E-02
     53     (1,76)                5.47859589E-02
     54     (1,77)                5.47862264E-02
     55     (1,78)                5.47860926E-02
     56     (1,79)                5.47855575E-02
     57     (1,80)                5.48246200E-02
     58     (1,81)                5.48282320E-02
     59     (1,82)                5.47887681E-02
     60     (1,83)                5.47864940E-02
     61     (1,86)                5.47856913E-02
     62     (1,87)                5.48240849E-02
     63     (1,88)                5.48244863E-02
     64     (1,89)                5.47855575E-02
     65     (1,90)                5.47856913E-02
     66     (1,91)                5.47898384E-02
     67     (1,92)                5.47899721E-02
     68     (1,93)                5.47954569E-02
     69     (1,94)                5.48044199E-02
     70     (1,95)                1.36968910E-02
     71     (1,96)                1.36968910E-02
     72     (1,97)                1.36963559E-02
     73     (1,98)                1.36962222E-02
     74     (1,99)                1.36962222E-02
     75     (1,100)               1.36964897E-02
     76     (1,101)               1.36967573E-02
     77     (1,102)               1.36959546E-02
     78     (1,103)               5.48056239E-02
     79     (1,104)               5.48246200E-02
     80     (1,105)               5.47855575E-02
     81     (1,106)               5.47859589E-02
     82     (1,107)               5.47860926E-02
     83     (1,108)               5.47862264E-02
     84     (1,109)               5.47863602E-02
     85     (1,110)               5.47859589E-02
     86     (1,111)               5.47897046E-02
     87     (1,112)               5.48282320E-02
     88     (1,113)               5.48240849E-02
     89     (1,114)               5.47854238E-02
     90     (1,115)               5.47856913E-02
     91     (1,118)               5.47855575E-02
     92     (1,119)               5.47855575E-02
     93     (1,120)               5.47858251E-02
     94     (1,121)               5.48239512E-02
     95     (1,122)               5.48242187E-02
     96     (1,123)               5.47899721E-02
     97     (1,124)               5.47891695E-02
     98     (1,125)               5.47856913E-02
     99     (1,126)               5.47858251E-02
    100     (1,127)               5.47858251E-02
    101     (1,128)               5.48053563E-02
    102     (1,129)               1.36968910E-02
    103     (1,130)               1.36960884E-02
    104     (1,131)               1.36970248E-02
    105     (1,132)               1.36963559E-02
    106     (1,133)               1.36967573E-02
    107     (1,134)               1.36986301E-02
    108     (1,135)               1.36984963E-02
    109     (1,136)               1.36966235E-02
    110     (1,137)               5.48049550E-02
    111     (1,138)               5.48250214E-02
    112     (1,139)               5.47856913E-02
    113     (1,140)               5.47860926E-02
    114     (1,141)               5.47859589E-02
    115     (1,142)               5.47859589E-02
    116     (1,143)               5.47894370E-02
    117     (1,144)               5.47903735E-02
    118     (1,145)               5.47855575E-02
    119     (1,146)               5.48243525E-02
    120     (1,147)               5.48242187E-02
    121     (1,148)               5.47863602E-02
    122     (1,149)               5.47859589E-02
    123     (1,152)               5.47862264E-02
    124     (1,153)               5.47860926E-02
    125     (1,154)               5.47851562E-02
    126     (1,155)               5.47863602E-02
    127     (1,156)               5.47851562E-02
    128     (1,157)               5.48286333E-02
    129     (1,158)               5.48283657E-02
    130     (1,159)               5.47858251E-02
    131     (1,160)               5.47855575E-02
    132     (1,161)               5.47862264E-02
    133     (1,162)               5.47859589E-02
    134     (1,163)               5.47860926E-02
    135     (1,164)               5.48070954E-02
    136     (1,165)               1.36972924E-02
    137     (1,166)               1.36971586E-02
    138     (1,167)               1.36964897E-02
    139     (1,168)               1.36970248E-02
    140     (1,169)               1.36967573E-02
    141     (1,170)               1.36962222E-02
    142     (1,171)               1.36962222E-02
    143     (1,172)               1.36963559E-02
    144     (1,173)               5.48058914E-02
    145     (1,174)               5.48238174E-02
    146     (1,175)               5.47860926E-02
    147     (1,176)               5.47858251E-02
    148     (1,177)               5.47894370E-02
    149     (1,178)               5.47901059E-02
    150     (1,179)               5.47863602E-02
    151     (1,180)               5.47858251E-02
    152     (1,181)               5.47855575E-02
    153     (1,182)               5.48250214E-02
    154     (1,183)               5.48246200E-02
    155     (1,184)               5.47855575E-02
    156     (1,185)               5.47855575E-02
    157     (1,188)               5.47860926E-02
    158     (1,189)               5.47860926E-02
    159     (1,190)               5.47863602E-02
    160     (1,191)               5.47859589E-02
    161     (1,192)               5.47852900E-02
    162     (1,193)               5.47897046E-02
    163     (1,194)               5.47897046E-02
    164     (1,195)               5.48244863E-02
    165     (1,196)               5.48244863E-02
    166     (1,197)               5.47855575E-02
    167     (1,198)               5.47851562E-02
    168     (1,199)               5.47858251E-02
    169     (1,200)               5.47863602E-02
    170     (1,201)               5.47860926E-02
    171     (1,202)               5.48048212E-02
    172     (1,203)               1.36963559E-02
    173     (1,204)               1.36960884E-02
    174     (1,205)               1.36964897E-02
    175     (1,206)               1.36960884E-02
    176     (1,207)               1.36960884E-02
    177     (1,208)               1.36967573E-02
    178     (1,209)               1.36967573E-02
    179     (1,210)               1.36967573E-02
    180     (1,211)               5.48045537E-02
    181     (1,212)               5.48244863E-02
    182     (1,213)               5.47894370E-02
    183     (1,214)               5.47891695E-02
    184     (1,215)               5.47863602E-02
    185     (1,216)               5.47858251E-02
    186     (1,217)               5.47859589E-02
    187     (1,218)               5.47860926E-02
    188     (1,219)               5.47862264E-02
    189     (1,220)               5.48246200E-02
    190     (1,221)               5.48239512E-02
    191     (1,222)               5.47862264E-02
    192     (1,223)               5.47859589E-02
    193     (1,225)               5.47854238E-02
    194     (1,226)               5.48242187E-02
    195     (1,227)               5.48246200E-02
    196     (1,228)               5.47856913E-02
    197     (1,229)               5.47860926E-02
    198     (1,230)               5.47862264E-02
    199     (1,231)               5.47894370E-02
    200     (1,232)               5.47897046E-02
    201     (1,233)               5.47860926E-02
    202     (1,234)               5.47858251E-02
    203     (1,235)               5.48244863E-02
    204     (1,236)               5.48243525E-02
    205     (1,237)               5.47862264E-02
    206     (1,238)               5.47855575E-02
    207     (1,239)               5.47856913E-02
    208     (1,240)               5.47859589E-02
    209     (1,241)               5.47856913E-02
    210     (1,242)               5.48058914E-02
    211     (1,243)               1.36970248E-02
    212     (1,244)               1.36963559E-02
    213     (1,245)               1.36963559E-02
    214     (1,246)               1.36968910E-02
    215     (1,247)               1.36964897E-02
    216     (1,248)               1.36964897E-02
    217     (1,249)               1.36963559E-02
    218     (1,250)               1.36968910E-02
    219     (1,251)               5.48081656E-02
    220     (1,252)               5.48272955E-02
    221     (1,253)               5.47939854E-02
    222     (1,254)               5.47858251E-02
    223     (1,255)               5.47856913E-02
    224     (1,256)               5.47859589E-02
    225     (1,257)               5.47859589E-02
    226     (1,258)               5.47862264E-02
    227     (1,259)               5.47858251E-02
    228     (1,260)               5.48243525E-02
    229     (1,261)               5.48244863E-02
    230     (1,262)               5.47855575E-02
    231     (1,263)               5.47852900E-02
    232     (1,266)               5.47856913E-02
    233     (1,267)               5.47859589E-02
    234     (1,268)               5.48246200E-02
    235     (1,269)               5.48246200E-02
    236     (1,270)               5.47863602E-02
    237     (1,271)               5.47902397E-02
    238     (1,272)               5.47895708E-02
    239     (1,273)               5.47854238E-02
    240     (1,274)               5.47854238E-02
    241     (1,275)               5.47855575E-02
    242     (1,276)               5.47854238E-02
    243     (1,277)               5.48246200E-02
    244     (1,278)               5.48243525E-02
    245     (1,279)               5.47855575E-02
    246     (1,280)               5.47854238E-02
    247     (1,281)               5.47858251E-02
    248     (1,282)               5.47858251E-02
    249     (1,283)               5.47852900E-02
    250     (1,284)               5.48049550E-02
    251     (1,285)               1.36960884E-02
    252     (1,286)               1.36963559E-02
    253     (1,287)               1.36968910E-02
    254     (1,288)               1.36978275E-02
    255     (1,289)               1.36990315E-02
    256     (1,290)               1.36966235E-02
    257     (1,291)               1.36960884E-02
    258     (1,292)               1.36963559E-02
    259     (1,293)               1.36964897E-02
    260     (1,294)               1.37160210E-02
    261     (1,295)               1.36966235E-02
    262     (1,296)               1.36964897E-02
    263     (1,297)               1.36962222E-02
    264     (1,298)               1.36963559E-02
    265     (1,299)               1.37157534E-02
    266     (1,300)               1.36960884E-02
    267     (1,301)               5.48048212E-02
    268     (1,302)               5.47946543E-02
    269     (1,303)               5.47858251E-02
    270     (1,304)               5.47854238E-02
    271     (1,305)               5.47855575E-02
    272     (1,306)               5.47862264E-02
    273     (1,307)               5.47859589E-02
    274     (1,308)               5.48239512E-02
    275     (1,309)               5.48248876E-02
    276     (1,310)               5.47856913E-02
    277     (1,311)               5.47859589E-02
    278     (1,349)               5.47858251E-02
    279     (1,350)               5.47858251E-02
    280     (1,351)               5.47862264E-02
    281     (1,352)               5.48243525E-02
    282     (1,353)               5.48283657E-02
    283     (1,354)               5.47898384E-02
    284     (1,355)               5.47858251E-02
    285     (1,356)               5.47860926E-02
    286     (1,357)               5.47858251E-02
    287     (1,358)               5.47858251E-02
    288     (1,359)               5.47859589E-02
    289     (1,360)               5.47852900E-02
    290     (1,361)               5.48250214E-02
    291     (1,362)               5.48239512E-02
    292     (1,363)               5.47862264E-02
    293     (1,364)               5.47858251E-02
    294     (1,365)               5.47862264E-02
    295     (1,366)               5.47855575E-02
    296     (1,367)               5.47891695E-02
    297     (1,368)               5.47989351E-02
    298     (1,369)               5.47959920E-02
    299     (1,370)               5.48056239E-02
    300     (1,371)               1.36970248E-02
    301     (1,372)               1.37158872E-02
    302     (1,373)               1.36959546E-02
    303     (1,374)               1.36960884E-02
    304     (1,375)               1.36960884E-02
    305     (1,376)               1.36952857E-02
    306     (1,377)               1.37161547E-02
    307     (1,378)               1.36967573E-02
    308     (1,379)               1.36960884E-02
    309     (1,380)               1.36967573E-02
    310     (1,381)               1.36954195E-02
    311     (1,382)               1.36966235E-02
    312     (1,383)               5.47966609E-02
    313     (1,384)               5.47859589E-02
    314     (1,385)               5.47858251E-02
    315     (1,386)               5.47851562E-02
    316     (1,387)               5.47860926E-02
    317     (1,388)               5.47858251E-02
    318     (1,389)               5.48242187E-02
    319     (1,390)               5.48242187E-02
    320     (1,391)               5.47903735E-02
    321     (1,392)               5.47886344E-02
    322     (1,393)               5.47858251E-02
    323     (1,394)               5.47856913E-02
    324     (1,395)               5.47858251E-02
    325     (1,396)               5.47856913E-02
    326     (1,397)               5.47856913E-02
    327     (1,398)               5.48242187E-02
    328     (1,399)               5.48242187E-02
    329     (1,400)               5.47854238E-02
    330     (1,401)               5.47858251E-02
    331     (1,402)               5.47855575E-02
    332     (1,403)               5.47858251E-02
    333     (1,404)               5.47859589E-02
    334     (1,405)               5.47859589E-02
    335     (1,406)               5.47894370E-02
    336     (1,407)               5.47899721E-02
    337     (1,408)               5.48240849E-02
    338     (1,409)               5.48242187E-02
    357     (1,430)               5.47858251E-02
    358     (1,431)               5.47858251E-02
    359     (1,432)               5.47854238E-02
    360     (1,433)               5.47895708E-02
    361     (1,434)               5.48280982E-02
    362     (1,435)               5.48242187E-02
    363     (1,436)               5.47856913E-02
    364     (1,437)               5.47855575E-02
    365     (1,438)               5.47854238E-02
    366     (1,439)               5.47852900E-02
    367     (1,440)               5.47859589E-02
    368     (1,441)               5.47866277E-02
    369     (1,442)               5.47855575E-02
    370     (1,443)               5.48246200E-02
    371     (1,444)               5.48244863E-02
    372     (1,445)               5.47855575E-02
    373     (1,446)               5.47860926E-02
    374     (1,447)               5.47895708E-02
    375     (1,448)               5.47895708E-02
    376     (1,449)               5.47856913E-02
    377     (1,450)               5.47859589E-02
    378     (1,451)               5.47855575E-02
    379     (1,452)               5.47969285E-02
    380     (1,453)               5.48246200E-02
    381     (1,454)               1.36967573E-02
    382     (1,455)               1.36962222E-02
    383     (1,456)               1.37157534E-02
    384     (1,457)               1.36968910E-02
    385     (1,458)               5.48073630E-02
    386     (1,459)               5.47858251E-02
    387     (1,460)               5.47859589E-02
    388     (1,461)               5.47858251E-02
    389     (1,462)               5.47852900E-02
    390     (1,463)               5.47848887E-02
    391     (1,464)               5.47859589E-02
    392     (1,465)               5.48279644E-02
    393     (1,466)               5.48289009E-02
    394     (1,467)               5.47862264E-02
    395     (1,468)               5.47852900E-02
    396     (1,469)               5.47852900E-02
    397     (1,470)               5.47858251E-02
    398     (1,471)               5.47854238E-02
    399     (1,472)               5.47852900E-02
    400     (1,473)               5.47856913E-02
    401     (1,474)               5.48242187E-02
    402     (1,475)               5.48244863E-02
    403     (1,476)               5.47854238E-02
    404     (1,477)               5.47859589E-02
    405     (1,478)               5.47855575E-02
    406     (1,479)               5.47856913E-02
    407     (1,480)               5.47895708E-02
    408     (1,481)               5.47894370E-02
    409     (1,482)               5.47860926E-02
    410     (1,483)               5.47859589E-02
    431     (1,506)               5.47856913E-02
    432     (1,507)               5.47858251E-02
    433     (1,508)               5.47897046E-02
    434     (1,509)               5.47897046E-02
    435     (1,510)               5.47855575E-02
    436     (1,511)               5.48246200E-02
    437     (1,512)               5.48246200E-02
    438     (1,513)               5.47860926E-02
    439     (1,514)               5.47858251E-02
    440     (1,515)               5.47855575E-02
    441     (1,516)               5.47862264E-02
    442     (1,517)               5.47866277E-02
    443     (1,518)               5.47856913E-02
    444     (1,519)               5.47858251E-02
    445     (1,520)               5.48244863E-02
    446     (1,521)               5.48244863E-02
    447     (1,522)               5.47897046E-02
    448     (1,523)               5.47894370E-02
    449     (1,524)               5.47866277E-02
    450     (1,525)               5.47859589E-02
    451     (1,526)               5.47859589E-02
    452     (1,527)               5.47856913E-02
    453     (1,528)               5.47856913E-02
    454     (1,529)               5.47943867E-02
    455     (1,530)               1.36963559E-02
    456     (1,531)               1.37178938E-02
    457     (1,532)               1.36983626E-02
    458     (1,533)               1.36962222E-02
    459     (1,534)               1.36962222E-02
    460     (1,535)               1.36966235E-02
    461     (1,536)               1.37154859E-02
    462     (1,537)               1.36964897E-02
    463     (1,538)               5.48052226E-02
    464     (1,539)               5.47859589E-02
    465     (1,540)               5.47858251E-02
    466     (1,541)               5.47858251E-02
    467     (1,542)               5.47856913E-02
    468     (1,543)               5.47898384E-02
    469     (1,544)               5.47894370E-02
    470     (1,545)               5.48240849E-02
    471     (1,546)               5.48252889E-02
    472     (1,547)               5.47856913E-02
    473     (1,548)               5.47859589E-02
    474     (1,549)               5.47854238E-02
    475     (1,550)               5.47862264E-02
    476     (1,551)               5.47860926E-02
    477     (1,552)               5.47859589E-02
    478     (1,553)               5.47860926E-02
    479     (1,554)               5.48243525E-02
    480     (1,555)               5.48248876E-02
    481     (1,556)               5.47858251E-02
    482     (1,557)               5.47851562E-02
    483     (1,558)               5.47895708E-02
    484     (1,559)               5.47901059E-02
    485     (1,560)               5.47858251E-02
    486     (1,561)               5.47856913E-02
    487     (1,562)               5.47856913E-02
    509     (1,586)               5.47859589E-02
    510     (1,587)               5.47894370E-02
    511     (1,588)               5.47895708E-02
    512     (1,589)               5.47860926E-02
    513     (1,590)               5.47858251E-02
    514     (1,591)               5.47859589E-02
    515     (1,592)               5.48242187E-02
    516     (1,593)               5.48248876E-02
    517     (1,594)               5.47854238E-02
    518     (1,595)               5.47860926E-02
    519     (1,596)               5.47852900E-02
    520     (1,597)               5.47856913E-02
    521     (1,598)               5.47856913E-02
    522     (1,599)               5.47855575E-02
    523     (1,600)               5.47859589E-02
    524     (1,601)               5.48282320E-02
    525     (1,602)               5.48280982E-02
    526     (1,603)               5.47852900E-02
    527     (1,604)               5.47863602E-02
    528     (1,605)               5.47862264E-02
    529     (1,606)               5.47864940E-02
    530     (1,607)               5.47859589E-02
    531     (1,608)               5.47856913E-02
    532     (1,609)               5.47863602E-02
    533     (1,610)               5.48060252E-02
    534     (1,611)               1.36960884E-02
    535     (1,612)               1.37157534E-02
    536     (1,613)               1.36964897E-02
    537     (1,614)               1.36962222E-02
    538     (1,615)               1.36966235E-02
    539     (1,616)               1.36963559E-02
    540     (1,617)               1.37160210E-02
    541     (1,618)               1.36967573E-02
    542     (1,619)               5.48062928E-02
    543     (1,620)               5.47855575E-02
    544     (1,621)               5.47860926E-02
    545     (1,622)               5.47891695E-02
    546     (1,623)               5.47894370E-02
    547     (1,624)               5.47854238E-02
    548     (1,625)               5.47855575E-02
    549     (1,626)               5.48240849E-02
    550     (1,627)               5.48244863E-02
    551     (1,628)               5.47864940E-02
    552     (1,629)               5.47855575E-02
    553     (1,630)               5.47859589E-02
    554     (1,631)               5.47854238E-02
    555     (1,632)               5.47854238E-02
    556     (1,633)               5.47858251E-02
    557     (1,634)               5.47856913E-02
    558     (1,635)               5.48243525E-02
    559     (1,636)               5.48242187E-02
    560     (1,637)               5.47889019E-02
    561     (1,638)               5.47891695E-02
    562     (1,639)               5.47855575E-02
    563     (1,640)               5.47855575E-02
    564     (1,641)               5.47860926E-02
    565     (1,642)               5.47862264E-02
    588     (1,667)               5.47902397E-02
    589     (1,668)               5.47895708E-02
    590     (1,669)               5.47859589E-02
    591     (1,670)               5.47858251E-02
    592     (1,671)               5.47855575E-02
    593     (1,672)               5.47862264E-02
    594     (1,673)               5.47858251E-02
    595     (1,674)               5.48250214E-02
    596     (1,675)               5.48242187E-02
    597     (1,676)               5.47860926E-02
    598     (1,677)               5.47856913E-02
    599     (1,678)               5.47860926E-02
    600     (1,679)               5.47852900E-02
    601     (1,680)               5.47858251E-02
    602     (1,681)               5.47905072E-02
    603     (1,682)               5.47897046E-02
    604     (1,683)               5.48239512E-02
    605     (1,684)               5.48242187E-02
    606     (1,685)               5.47859589E-02
    607     (1,686)               5.47859589E-02
    608     (1,687)               5.47855575E-02
    609     (1,688)               5.47862264E-02
    610     (1,689)               5.47860926E-02
    611     (1,690)               5.47855575E-02
    612     (1,691)               5.47854238E-02
    613     (1,692)               5.48042861E-02
    614     (1,693)               1.36962222E-02
    615     (1,694)               1.37160210E-02
    616     (1,695)               1.36967573E-02
    617     (1,696)               1.36963559E-02
    618     (1,697)               1.36968910E-02
    619     (1,698)               1.36960884E-02
    620     (1,699)               1.37161547E-02
    621     (1,700)               1.36968910E-02
    622     (1,701)               5.48061590E-02
    623     (1,702)               5.47897046E-02
    624     (1,703)               5.47897046E-02
    625     (1,704)               5.47858251E-02
    626     (1,705)               5.47852900E-02
    627     (1,706)               5.47854238E-02
    628     (1,707)               5.47859589E-02
    629     (1,708)               5.48242187E-02
    630     (1,709)               5.48251551E-02
    631     (1,710)               5.47856913E-02
    632     (1,711)               5.47859589E-02
    633     (1,712)               5.47856913E-02
    634     (1,713)               5.47855575E-02
    635     (1,714)               5.47858251E-02
    636     (1,715)               5.47852900E-02
    637     (1,716)               5.47863602E-02
    638     (1,717)               5.48279644E-02
    639     (1,718)               5.48279644E-02
    640     (1,719)               5.47858251E-02
    641     (1,720)               5.47856913E-02
    642     (1,721)               5.47858251E-02
    643     (1,722)               5.47856913E-02
    644     (1,723)               5.47855575E-02
    668     (1,749)               5.48286333E-02
    669     (1,750)               5.47852900E-02
    670     (1,751)               5.47856913E-02
    671     (1,752)               5.47854238E-02
    672     (1,753)               5.47859589E-02
    673     (1,754)               5.47859589E-02
    674     (1,755)               5.47855575E-02
    675     (1,756)               5.47859589E-02
    676     (1,757)               5.48244863E-02
    677     (1,758)               5.48243525E-02
    678     (1,759)               5.47860926E-02
    679     (1,760)               5.47859589E-02
    680     (1,761)               5.47856913E-02
    681     (1,762)               5.47894370E-02
    682     (1,763)               5.47897046E-02
    683     (1,764)               5.47854238E-02
    684     (1,765)               5.47855575E-02
    685     (1,766)               5.48242187E-02
    686     (1,767)               5.48243525E-02
    687     (1,768)               5.47856913E-02
    688     (1,769)               5.47856913E-02
    689     (1,770)               5.47854238E-02
    690     (1,771)               5.47856913E-02
    691     (1,772)               5.47854238E-02
    692     (1,773)               5.47860926E-02
    693     (1,774)               5.47854238E-02
    694     (1,775)               5.48049550E-02
    695     (1,776)               1.36964897E-02
    696     (1,777)               1.37161547E-02
    697     (1,778)               1.36964897E-02
    698     (1,779)               1.36970248E-02
    699     (1,780)               1.36963559E-02
    700     (1,781)               1.36962222E-02
    701     (1,782)               1.37153521E-02
    702     (1,783)               1.36982288E-02
    703     (1,784)               5.48088345E-02
    704     (1,785)               5.47859589E-02
    705     (1,786)               5.47859589E-02
    706     (1,787)               5.47858251E-02
    707     (1,788)               5.47856913E-02
    708     (1,789)               5.47859589E-02
    709     (1,790)               5.47860926E-02
    710     (1,791)               5.48244863E-02
    711     (1,792)               5.48242187E-02
    712     (1,793)               5.47858251E-02
    713     (1,794)               5.47856913E-02
    714     (1,795)               5.47855575E-02
    715     (1,796)               5.47862264E-02
    716     (1,797)               5.47854238E-02
    717     (1,798)               5.47897046E-02
    718     (1,799)               5.47893032E-02
    719     (1,800)               5.48246200E-02
    720     (1,801)               5.48242187E-02
    721     (1,802)               5.47859589E-02
    722     (1,803)               5.47858251E-02
    723     (1,804)               5.47855575E-02
    724     (1,805)               5.47855575E-02
    749     (1,832)               5.48243525E-02
    750     (1,833)               5.48239512E-02
    751     (1,834)               5.47855575E-02
    752     (1,835)               5.47854238E-02
    753     (1,836)               5.47858251E-02
    754     (1,837)               5.47855575E-02
    755     (1,838)               5.47862264E-02
    756     (1,839)               5.47855575E-02
    757     (1,840)               5.47859589E-02
    758     (1,841)               5.48246200E-02
    759     (1,842)               5.48244863E-02
    760     (1,843)               5.47860926E-02
    761     (1,844)               5.47899721E-02
    762     (1,845)               5.47898384E-02
    763     (1,846)               5.47859589E-02
    764     (1,847)               5.47859589E-02
    765     (1,848)               5.47855575E-02
    766     (1,849)               5.47859589E-02
    767     (1,850)               5.48240849E-02
    768     (1,851)               5.48248876E-02
    769     (1,852)               5.47860926E-02
    770     (1,853)               5.47859589E-02
    771     (1,854)               5.47855575E-02
    772     (1,855)               5.47856913E-02
    773     (1,856)               5.47852900E-02
    774     (1,857)               5.47851562E-02
    775     (1,858)               5.47859589E-02
    776     (1,859)               5.48081656E-02
    777     (1,860)               1.36982288E-02
    778     (1,861)               1.37164223E-02
    779     (1,862)               1.36968910E-02
    780     (1,863)               1.36962222E-02
    781     (1,864)               1.36966235E-02
    782     (1,865)               1.36964897E-02
    783     (1,866)               1.37154859E-02
    784     (1,867)               1.36955533E-02
    785     (1,868)               5.48040186E-02
    786     (1,869)               5.47860926E-02
    787     (1,870)               5.47860926E-02
    788     (1,871)               5.47858251E-02
    789     (1,872)               5.47860926E-02
    790     (1,873)               5.47848887E-02
    791     (1,874)               5.47859589E-02
    792     (1,875)               5.48250214E-02
    793     (1,876)               5.48246200E-02
    794     (1,877)               5.47851562E-02
    795     (1,878)               5.47862264E-02
    796     (1,879)               5.47856913E-02
    797     (1,880)               5.47893032E-02
    798     (1,881)               5.47893032E-02
    799     (1,882)               5.47860926E-02
    800     (1,883)               5.47859589E-02
    801     (1,884)               5.48244863E-02
    802     (1,885)               5.48246200E-02
    803     (1,886)               5.47860926E-02
    804     (1,887)               5.47856913E-02
    805     (1,888)               5.47860926E-02
    806     (1,889)               5.47854238E-02
    830     (1,915)               5.47860926E-02
    831     (1,916)               5.48236836E-02
    832     (1,917)               5.48247538E-02
    833     (1,918)               5.47855575E-02
    834     (1,919)               5.47856913E-02
    835     (1,920)               5.47859589E-02
    836     (1,921)               5.47864940E-02
    837     (1,922)               5.47856913E-02
    838     (1,923)               5.47858251E-02
    839     (1,924)               5.47856913E-02
    840     (1,925)               5.48247538E-02
    841     (1,926)               5.48284995E-02
    842     (1,927)               5.47893032E-02
    843     (1,928)               5.47855575E-02
    844     (1,929)               5.47860926E-02
    845     (1,930)               5.47859589E-02
    846     (1,931)               5.47852900E-02
    847     (1,932)               5.47854238E-02
    848     (1,933)               5.47855575E-02
    849     (1,934)               5.48242187E-02
    850     (1,935)               5.48242187E-02
    851     (1,936)               5.47856913E-02
    852     (1,937)               5.47855575E-02
    853     (1,938)               5.47862264E-02
    854     (1,939)               5.47854238E-02
    855     (1,940)               5.47854238E-02
    856     (1,941)               5.47893032E-02
    857     (1,942)               5.47893032E-02
    858     (1,943)               5.48049550E-02
    859     (1,944)               1.36968910E-02
    860     (1,945)               1.37160210E-02
    861     (1,946)               1.36966235E-02
    862     (1,947)               1.36964897E-02
    863     (1,948)               1.36960884E-02
    864     (1,949)               1.36966235E-02
    865     (1,950)               1.37160210E-02
    866     (1,951)               1.36960884E-02
    867     (1,952)               5.47967947E-02
    868     (1,953)               5.47851562E-02
    869     (1,954)               5.47852900E-02
    870     (1,955)               5.47862264E-02
    871     (1,956)               5.47859589E-02
    872     (1,957)               5.47855575E-02
    873     (1,958)               5.47856913E-02
    874     (1,959)               5.48243525E-02
    875     (1,960)               5.48246200E-02
    876     (1,961)               5.47858251E-02
    877     (1,962)               5.47895708E-02
    878     (1,963)               5.47898384E-02
    879     (1,964)               5.47854238E-02
    880     (1,965)               5.47856913E-02
    881     (1,966)               5.47860926E-02
    882     (1,967)               5.47855575E-02
    883     (1,968)               5.48247538E-02
    884     (1,969)               5.48236836E-02
    885     (1,970)               5.47854238E-02
    886     (1,971)               5.47860926E-02
    887     (1,972)               5.47854238E-02
    911     (1,998)               5.47854238E-02
    912     (1,999)               5.47856913E-02
    913     (1,1000)              5.48240849E-02
    914     (1,1001)              5.48246200E-02
    915     (1,1002)              5.47856913E-02
    916     (1,1003)              5.47855575E-02
    917     (1,1004)              5.47852900E-02
    918     (1,1005)              5.47854238E-02
    919     (1,1006)              5.47858251E-02
    920     (1,1007)              5.47855575E-02
    921     (1,1008)              5.47901059E-02
    922     (1,1009)              5.48290346E-02
    923     (1,1010)              5.48243525E-02
    924     (1,1011)              5.47860926E-02
    925     (1,1012)              5.47863602E-02
    926     (1,1013)              5.47858251E-02
    927     (1,1014)              5.47860926E-02
    928     (1,1015)              5.47854238E-02
    929     (1,1016)              5.47858251E-02
    930     (1,1017)              5.47859589E-02
    931     (1,1018)              5.48243525E-02
    932     (1,1019)              5.48240849E-02
    933     (1,1020)              5.47858251E-02
    934     (1,1021)              5.47852900E-02
    935     (1,1022)              5.47855575E-02
    936     (1,1023)              5.47897046E-02
    937     (1,1024)              5.47899721E-02
    938     (1,1025)              5.47855575E-02
    939     (1,1026)              5.47855575E-02
    940     (1,1027)              5.48048212E-02
    941     (1,1028)              1.36962222E-02
    942     (1,1029)              1.37161547E-02
    943     (1,1030)              1.36972924E-02
    944     (1,1031)              1.36962222E-02
    945     (1,1032)              5.48252889E-02
    946     (1,1033)              5.47858251E-02
    947     (1,1034)              5.47860926E-02
    948     (1,1035)              5.47854238E-02
    949     (1,1036)              5.47856913E-02
    950     (1,1037)              5.47862264E-02
    951     (1,1038)              5.47859589E-02
    952     (1,1039)              5.47859589E-02
    953     (1,1040)              5.48252889E-02
    954     (1,1041)              5.48279644E-02
    955     (1,1042)              5.47894370E-02
    956     (1,1043)              5.47856913E-02
    957     (1,1044)              5.47855575E-02
    958     (1,1045)              5.47855575E-02
    959     (1,1046)              5.47852900E-02
    960     (1,1047)              5.47854238E-02
    961     (1,1048)              5.47859589E-02
    962     (1,1049)              5.48247538E-02
    963     (1,1050)              5.48239512E-02
    964     (1,1051)              5.47854238E-02
    965     (1,1052)              5.47854238E-02
    966     (1,1053)              5.47859589E-02
    989     (1,1078)              5.47858251E-02
    990     (1,1079)              5.47855575E-02
    991     (1,1080)              5.47860926E-02
    992     (1,1081)              5.48246200E-02
    993     (1,1082)              5.48246200E-02
    994     (1,1083)              5.47858251E-02
    995     (1,1084)              5.47859589E-02
    996     (1,1085)              5.47854238E-02
    997     (1,1086)              5.47856913E-02
    998     (1,1087)              5.47894370E-02
    999     (1,1088)              5.47895708E-02
    1000    (1,1089)              5.47860926E-02
    1001    (1,1090)              5.48239512E-02
    1002    (1,1091)              5.48244863E-02
    1003    (1,1092)              5.47863602E-02
    1004    (1,1093)              5.47854238E-02
    1005    (1,1094)              5.47862264E-02
    1006    (1,1095)              5.47855575E-02
    1007    (1,1096)              5.47860926E-02
    1008    (1,1097)              5.47854238E-02
    1009    (1,1098)              5.47862264E-02
    1010    (1,1099)              5.48242187E-02
    1011    (1,1100)              5.48246200E-02
    1012    (1,1101)              5.47860926E-02
    1013    (1,1102)              5.47897046E-02
    1014    (1,1103)              5.47898384E-02
    1015    (1,1104)              5.47858251E-02
    1016    (1,1105)              5.47858251E-02
    1017    (1,1106)              5.47856913E-02
    1018    (1,1107)              5.47947881E-02
    1019    (1,1108)              1.36967573E-02
    1020    (1,1109)              1.36964897E-02
    1021    (1,1110)              1.36967573E-02
    1022    (1,1111)              1.36966235E-02
    1023    (1,1112)              5.48050888E-02
    1024    (1,1113)              5.48243525E-02
    1025    (1,1114)              5.47859589E-02
    1026    (1,1115)              5.47859589E-02
    1027    (1,1116)              5.47860926E-02
    1028    (1,1117)              5.47860926E-02
    1029    (1,1118)              5.47859589E-02
    1030    (1,1119)              5.47862264E-02
    1031    (1,1120)              5.47894370E-02
    1032    (1,1121)              5.48278306E-02
    1033    (1,1122)              5.48246200E-02
    1034    (1,1123)              5.47856913E-02
    1035    (1,1124)              5.47862264E-02
    1036    (1,1125)              5.47860926E-02
    1037    (1,1126)              5.47858251E-02
    1038    (1,1127)              5.47858251E-02
    1039    (1,1128)              5.47855575E-02
    1040    (1,1129)              5.47854238E-02
    1041    (1,1130)              5.48243525E-02
    1042    (1,1131)              5.48243525E-02
    1043    (1,1132)              5.47858251E-02
    1044    (1,1133)              5.47851562E-02
    1045    (1,1134)              5.47894370E-02
    1067    (1,1158)              5.47859589E-02
    1068    (1,1159)              5.47851562E-02
    1069    (1,1160)              5.47854238E-02
    1070    (1,1161)              5.47859589E-02
    1071    (1,1162)              5.48247538E-02
    1072    (1,1163)              5.48239512E-02
    1073    (1,1164)              5.47862264E-02
    1074    (1,1165)              5.47859589E-02
    1075    (1,1166)              5.47890357E-02
    1076    (1,1167)              5.47890357E-02
    1077    (1,1168)              5.47856913E-02
    1078    (1,1169)              5.47855575E-02
    1079    (1,1170)              5.47862264E-02
    1080    (1,1171)              5.48242187E-02
    1081    (1,1172)              5.48246200E-02
    1082    (1,1173)              5.47852900E-02
    1083    (1,1174)              5.47860926E-02
    1084    (1,1175)              5.47862264E-02
    1085    (1,1176)              5.47854238E-02
    1086    (1,1177)              5.47858251E-02
    1087    (1,1178)              5.47858251E-02
    1088    (1,1179)              5.47863602E-02
    1089    (1,1180)              5.48247538E-02
    1090    (1,1181)              5.48286333E-02
    1091    (1,1182)              5.47893032E-02
    1092    (1,1183)              5.47855575E-02
    1093    (1,1184)              5.47856913E-02
    1094    (1,1185)              5.47863602E-02
    1095    (1,1186)              5.47859589E-02
    1096    (1,1187)              5.47943867E-02
    1097    (1,1188)              1.36958208E-02
    1098    (1,1189)              1.36967573E-02
    1099    (1,1190)              1.36963559E-02
    1100    (1,1191)              1.36968910E-02
    1101    (1,1192)              1.36963559E-02
    1102    (1,1193)              1.36984963E-02
    1103    (1,1194)              1.36986301E-02
    1104    (1,1195)              1.36964897E-02
    1105    (1,1196)              5.48137842E-02
    1106    (1,1197)              5.48244863E-02
    1107    (1,1198)              5.47860926E-02
    1108    (1,1199)              5.47858251E-02
    1109    (1,1200)              5.47858251E-02
    1110    (1,1201)              5.47859589E-02
    1111    (1,1202)              5.47894370E-02
    1112    (1,1203)              5.47897046E-02
    1113    (1,1204)              5.47855575E-02
    1114    (1,1205)              5.48252889E-02
    1115    (1,1206)              5.48246200E-02
    1116    (1,1207)              5.47858251E-02
    1117    (1,1208)              5.47866277E-02
    1118    (1,1209)              5.47855575E-02
    1119    (1,1210)              5.47854238E-02
    1120    (1,1211)              5.47859589E-02
    1121    (1,1212)              5.47856913E-02
    1122    (1,1213)              5.47862264E-02
    1123    (1,1214)              5.48243525E-02
    1124    (1,1215)              5.48247538E-02
    1125    (1,1216)              5.47889019E-02
    1126    (1,1217)              5.47893032E-02
    1127    (1,1218)              5.47856913E-02
    1148    (1,1241)              5.47855575E-02
    1149    (1,1242)              5.47855575E-02
    1150    (1,1243)              5.47850224E-02
    1151    (1,1244)              5.47859589E-02
    1152    (1,1245)              5.47856913E-02
    1153    (1,1246)              5.48248876E-02
    1154    (1,1247)              5.48248876E-02
    1155    (1,1248)              5.47902397E-02
    1156    (1,1249)              5.47901059E-02
    1157    (1,1250)              5.47860926E-02
    1158    (1,1251)              5.47860926E-02
    1159    (1,1252)              5.47858251E-02
    1160    (1,1253)              5.47856913E-02
    1161    (1,1254)              5.47855575E-02
    1162    (1,1255)              5.48248876E-02
    1163    (1,1256)              5.48244863E-02
    1164    (1,1257)              5.47860926E-02
    1165    (1,1258)              5.47859589E-02
    1166    (1,1259)              5.47863602E-02
    1167    (1,1260)              5.47858251E-02
    1168    (1,1261)              5.47862264E-02
    1169    (1,1262)              5.47856913E-02
    1170    (1,1263)              5.47906410E-02
    1171    (1,1264)              5.48275631E-02
    1172    (1,1265)              5.48240849E-02
    1173    (1,1266)              5.47863602E-02
    1174    (1,1267)              5.47856913E-02
    1175    (1,1268)              5.47860926E-02
    1176    (1,1269)              5.47860926E-02
    1177    (1,1270)              5.47860926E-02
    1178    (1,1271)              5.48069616E-02
    1179    (1,1272)              1.36956871E-02
    1180    (1,1273)              1.36970248E-02
    1181    (1,1274)              1.36962222E-02
    1182    (1,1275)              1.36962222E-02
    1183    (1,1276)              5.47749893E-02
    1184    (1,1277)              5.48248876E-02
    1185    (1,1278)              5.48248876E-02
    1186    (1,1279)              5.47859589E-02
    1187    (1,1280)              5.47854238E-02
    1188    (1,1281)              5.47902397E-02
    1189    (1,1282)              5.47899721E-02
    1190    (1,1283)              5.47863602E-02
    1191    (1,1284)              5.47854238E-02
    1192    (1,1285)              5.47862264E-02
    1193    (1,1286)              5.48242187E-02
    1194    (1,1287)              5.48246200E-02
    1195    (1,1288)              5.47864940E-02
    1196    (1,1289)              5.47860926E-02
    1197    (1,1290)              5.47856913E-02
    1198    (1,1291)              5.47855575E-02
    1199    (1,1292)              5.47855575E-02
    1200    (1,1293)              5.47855575E-02
    1201    (1,1294)              5.47858251E-02
    1202    (1,1295)              5.48279644E-02
    1203    (1,1296)              5.48282320E-02
    1204    (1,1297)              5.47856913E-02
    1205    (1,1298)              5.47862264E-02
    1206    (1,1299)              5.47862264E-02
    1207    (1,1300)              5.47859589E-02
    1226    (1,1320)              5.47866277E-02
    1227    (1,1321)              5.47859589E-02
    1228    (1,1322)              5.47863602E-02
    1229    (1,1323)              5.47860926E-02
    1230    (1,1324)              5.47855575E-02
    1231    (1,1325)              5.47863602E-02
    1232    (1,1326)              5.48287671E-02
    1233    (1,1327)              5.48282320E-02
    1234    (1,1328)              5.47858251E-02
    1235    (1,1329)              5.47855575E-02
    1236    (1,1330)              5.47856913E-02
    1237    (1,1331)              5.47856913E-02
    1238    (1,1332)              5.47858251E-02
    1239    (1,1333)              5.47858251E-02
    1240    (1,1334)              5.47859589E-02
    1241    (1,1335)              5.48243525E-02
    1242    (1,1336)              5.48250214E-02
    1243    (1,1337)              5.47858251E-02
    1244    (1,1338)              5.47852900E-02
    1245    (1,1339)              5.47860926E-02
    1246    (1,1340)              5.47859589E-02
    1247    (1,1341)              5.47893032E-02
    1248    (1,1342)              5.47898384E-02
    1249    (1,1343)              5.47858251E-02
    1250    (1,1344)              5.48246200E-02
    1251    (1,1345)              5.48239512E-02
    1252    (1,1346)              5.47856913E-02
    1253    (1,1347)              5.47851562E-02
    1254    (1,1348)              5.47854238E-02
    1255    (1,1349)              5.47855575E-02
    1256    (1,1350)              5.48062928E-02
    1257    (1,1351)              1.36968910E-02
    1258    (1,1352)              1.36964897E-02
    1259    (1,1353)              1.36962222E-02
    1260    (1,1354)              1.36966235E-02
    1261    (1,1355)              5.47761932E-02
    1262    (1,1356)              5.47858251E-02
    1263    (1,1357)              5.48244863E-02
    1264    (1,1358)              5.48239512E-02
    1265    (1,1359)              5.47894370E-02
    1266    (1,1360)              5.47901059E-02
    1267    (1,1361)              5.47859589E-02
    1268    (1,1362)              5.47862264E-02
    1269    (1,1363)              5.47859589E-02
    1270    (1,1364)              5.47860926E-02
    1271    (1,1365)              5.47755244E-02
    1272    (1,1366)              5.48136504E-02
    1273    (1,1367)              5.48242187E-02
    1274    (1,1368)              5.47858251E-02
    1275    (1,1369)              5.47858251E-02
    1276    (1,1370)              5.47858251E-02
    1277    (1,1371)              5.47854238E-02
    1278    (1,1372)              5.47856913E-02
    1279    (1,1373)              5.47897046E-02
    1280    (1,1374)              5.47894370E-02
    1281    (1,1375)              5.48246200E-02
    1282    (1,1376)              5.48246200E-02
    1283    (1,1377)              5.47858251E-02
    1284    (1,1378)              5.47858251E-02
    1285    (1,1379)              5.47859589E-02
    1286    (1,1380)              5.47855575E-02
    1304    (1,1400)              5.47858251E-02
    1305    (1,1401)              5.47863602E-02
    1306    (1,1402)              5.47862264E-02
    1307    (1,1403)              5.47897046E-02
    1308    (1,1404)              5.47899721E-02
    1309    (1,1405)              5.48242187E-02
    1310    (1,1406)              5.48243525E-02
    1311    (1,1407)              5.47855575E-02
    1312    (1,1408)              5.47854238E-02
    1313    (1,1409)              5.47858251E-02
    1314    (1,1410)              5.47858251E-02
    1315    (1,1411)              5.47855575E-02
    1316    (1,1412)              5.47858251E-02
    1317    (1,1413)              5.47859589E-02
    1318    (1,1414)              5.48244863E-02
    1319    (1,1415)              5.48247538E-02
    1320    (1,1416)              5.47859589E-02
    1321    (1,1417)              5.47862264E-02
    1322    (1,1418)              5.47899721E-02
    1323    (1,1419)              5.47887681E-02
    1324    (1,1420)              5.47860926E-02
    1325    (1,1421)              5.47858251E-02
    1326    (1,1422)              5.47855575E-02
    1327    (1,1423)              5.48246200E-02
    1328    (1,1424)              5.48246200E-02
    1329    (1,1425)              5.47860926E-02
    1330    (1,1426)              5.47860926E-02
    1331    (1,1427)              5.47773972E-02
    1332    (1,1428)              1.36964897E-02
    1333    (1,1429)              1.36966235E-02
    1334    (1,1430)              1.36960884E-02
    1335    (1,1431)              1.36963559E-02
    1336    (1,1432)              1.37160210E-02
    1337    (1,1433)              1.36967573E-02
    1338    (1,1434)              1.36967573E-02
    1339    (1,1435)              1.37153521E-02
    1340    (1,1436)              5.47661601E-02
    1341    (1,1437)              5.47855575E-02
    1342    (1,1438)              5.47854238E-02
    1343    (1,1439)              5.48283657E-02
    1344    (1,1440)              5.48278306E-02
    1345    (1,1441)              5.47858251E-02
    1346    (1,1442)              5.47860926E-02
    1347    (1,1443)              5.47859589E-02
    1348    (1,1444)              5.47862264E-02
    1349    (1,1445)              5.47840860E-02
    1350    (1,1446)              1.36967573E-02
    1351    (1,1447)              1.36967573E-02
    1352    (1,1448)              1.36967573E-02
    1353    (1,1449)              1.36967573E-02
    1354    (1,1450)              1.36959546E-02
    1355    (1,1451)              1.36986301E-02
    1356    (1,1452)              1.36983626E-02
    1357    (1,1453)              1.36967573E-02
    1358    (1,1454)              5.48044199E-02
    1359    (1,1455)              5.48250214E-02
    1360    (1,1456)              5.47858251E-02
    1361    (1,1457)              5.47855575E-02
    1362    (1,1458)              5.47858251E-02
    1363    (1,1459)              5.47858251E-02
    1364    (1,1460)              5.47898384E-02
    1365    (1,1461)              5.47860926E-02
    1366    (1,1462)              5.47859589E-02
    1367    (1,1463)              5.48250214E-02
    1368    (1,1464)              5.48244863E-02
    1369    (1,1465)              5.47859589E-02
    1370    (1,1466)              5.47859589E-02
    1371    (1,1467)              5.47855575E-02
    1389    (1,1487)              5.47858251E-02
    1390    (1,1488)              5.47902397E-02
    1391    (1,1489)              5.47898384E-02
    1392    (1,1490)              5.47859589E-02
    1393    (1,1491)              5.47860926E-02
    1394    (1,1492)              5.48240849E-02
    1395    (1,1493)              5.48242187E-02
    1396    (1,1494)              5.47854238E-02
    1397    (1,1495)              5.47855575E-02
    1398    (1,1496)              5.47859589E-02
    1399    (1,1497)              5.47855575E-02
    1400    (1,1498)              5.47856913E-02
    1401    (1,1499)              5.47858251E-02
    1402    (1,1500)              5.47859589E-02
    1403    (1,1501)              5.48247538E-02
    1404    (1,1502)              5.48247538E-02
    1405    (1,1503)              5.47901059E-02
    1406    (1,1504)              5.47897046E-02
    1407    (1,1505)              5.47851562E-02
    1408    (1,1506)              5.47854238E-02
    1409    (1,1507)              5.47856913E-02
    1410    (1,1508)              5.47854238E-02
    1411    (1,1509)              5.47856913E-02
    1412    (1,1510)              5.48244863E-02
    1413    (1,1511)              5.48244863E-02
    1414    (1,1512)              5.47859589E-02
    1415    (1,1513)              5.47773972E-02
    1416    (1,1514)              1.36962222E-02
    1417    (1,1515)              1.36967573E-02
    1418    (1,1516)              1.36960884E-02
    1419    (1,1517)              1.36960884E-02
    1420    (1,1518)              1.36966235E-02
    1421    (1,1519)              1.36972924E-02
    1422    (1,1520)              1.36967573E-02
    1423    (1,1521)              1.36964897E-02
    1424    (1,1522)              1.37161547E-02
    1425    (1,1523)              1.36964897E-02
    1426    (1,1524)              1.36966235E-02
    1427    (1,1525)              1.37164223E-02
    1428    (1,1526)              5.47666952E-02
    1429    (1,1527)              5.47798052E-02
    1430    (1,1528)              5.47777985E-02
    1431    (1,1529)              5.48140517E-02
    1432    (1,1530)              5.48234160E-02
    1433    (1,1531)              5.47947881E-02
    1434    (1,1532)              5.47945205E-02
    1435    (1,1533)              5.47834171E-02
    1436    (1,1534)              1.37154859E-02
    1437    (1,1535)              1.36967573E-02
    1438    (1,1536)              1.36968910E-02
    1439    (1,1537)              1.37160210E-02
    1440    (1,1538)              1.36966235E-02
    1441    (1,1539)              1.36983626E-02
    1442    (1,1540)              1.36986301E-02
    1443    (1,1541)              1.36967573E-02
    1444    (1,1542)              1.36962222E-02
    1445    (1,1543)              1.36959546E-02
    1446    (1,1544)              1.36964897E-02
    1447    (1,1545)              1.36962222E-02
    1448    (1,1546)              1.36966235E-02
    1449    (1,1547)              1.36959546E-02
    1450    (1,1548)              1.36964897E-02
    1451    (1,1549)              1.36958208E-02
    1452    (1,1550)              5.48140517E-02
    1453    (1,1551)              5.48240849E-02
    1454    (1,1552)              5.47858251E-02
    1455    (1,1553)              5.47862264E-02
    1456    (1,1554)              5.47893032E-02
    1457    (1,1555)              5.47894370E-02
    1458    (1,1556)              5.47860926E-02
    1459    (1,1557)              5.47859589E-02
    1460    (1,1558)              5.47860926E-02
    1461    (1,1559)              5.48250214E-02
    1462    (1,1560)              5.48243525E-02
    1463    (1,1561)              5.47856913E-02
    1464    (1,1562)              5.47863602E-02
    1465    (1,1563)              5.47860926E-02
    1482    (1,1582)              5.47898384E-02
    1483    (1,1583)              5.47858251E-02
    1484    (1,1584)              5.47858251E-02
    1485    (1,1585)              5.47852900E-02
    1486    (1,1586)              5.47856913E-02
    1487    (1,1587)              5.48244863E-02
    1488    (1,1588)              5.48248876E-02
    1489    (1,1589)              5.47855575E-02
    1490    (1,1590)              5.47855575E-02
    1491    (1,1591)              5.47852900E-02
    1492    (1,1592)              5.47855575E-02
    1493    (1,1593)              5.47860926E-02
    1494    (1,1594)              5.47858251E-02
    1495    (1,1595)              5.47863602E-02
    1496    (1,1596)              5.48282320E-02
    1497    (1,1597)              5.48280982E-02
    1498    (1,1598)              5.47860926E-02
    1499    (1,1599)              5.47860926E-02
    1500    (1,1600)              5.47862264E-02
    1501    (1,1601)              5.47859589E-02
    1502    (1,1602)              5.47863602E-02
    1503    (1,1603)              5.47855575E-02
    1504    (1,1604)              5.47858251E-02
    1505    (1,1605)              5.48244863E-02
    1506    (1,1606)              5.48244863E-02
    1507    (1,1607)              5.47858251E-02
    1508    (1,1608)              5.47753906E-02
    1509    (1,1609)              5.47664276E-02
    1510    (1,1610)              1.36966235E-02
    1511    (1,1611)              1.36958208E-02
    1512    (1,1612)              1.36963559E-02
    1513    (1,1613)              1.36963559E-02
    1514    (1,1614)              1.37158872E-02
    1515    (1,1615)              1.36963559E-02
    1516    (1,1616)              1.36962222E-02
    1517    (1,1617)              1.37180276E-02
    1518    (1,1618)              1.36976937E-02
    1519    (1,1619)              1.36966235E-02
    1520    (1,1620)              1.36958208E-02
    1521    (1,1621)              1.36962222E-02
    1522    (1,1622)              1.36966235E-02
    1523    (1,1623)              1.36966235E-02
    1524    (1,1624)              1.36963559E-02
    1525    (1,1625)              1.36962222E-02
    1526    (1,1626)              1.36966235E-02
    1527    (1,1627)              1.36960884E-02
    1528    (1,1628)              1.36963559E-02
    1529    (1,1629)              1.36968910E-02
    1530    (1,1630)              1.36962222E-02
    1531    (1,1631)              1.37152183E-02
    1532    (1,1632)              1.36962222E-02
    1533    (1,1633)              1.36966235E-02
    1534    (1,1634)              1.36960884E-02
    1535    (1,1635)              1.36966235E-02
    1536    (1,1636)              1.37153521E-02
    1537    (1,1637)              1.36962222E-02
    1538    (1,1638)              1.36956871E-02
    1539    (1,1639)              1.36964897E-02
    1540    (1,1640)              1.36966235E-02
    1541    (1,1641)              1.36967573E-02
    1542    (1,1642)              1.36962222E-02
    1543    (1,1643)              1.36967573E-02
    1544    (1,1644)              1.36964897E-02
    1545    (1,1645)              1.36963559E-02
    1546    (1,1646)              1.36962222E-02
    1547    (1,1647)              1.36982288E-02
    1548    (1,1648)              1.36980950E-02
    1549    (1,1649)              1.36962222E-02
    1550    (1,1650)              1.37154859E-02
    1551    (1,1651)              1.36956871E-02
    1552    (1,1652)              1.36968910E-02
    1553    (1,1653)              1.37154859E-02
    1554    (1,1654)              1.36959546E-02
    1555    (1,1655)              1.36964897E-02
    1556    (1,1656)              1.36967573E-02
    1557    (1,1657)              1.36966235E-02
    1558    (1,1658)              1.36962222E-02
    1559    (1,1659)              1.36964897E-02
    1560    (1,1660)              1.36959546E-02
    1561    (1,1661)              1.36966235E-02
    1562    (1,1662)              5.47657587E-02
    1563    (1,1663)              5.48244863E-02
    1564    (1,1664)              5.48242187E-02
    1565    (1,1665)              5.47893032E-02
    1566    (1,1666)              5.47898384E-02
    1567    (1,1667)              5.47855575E-02
    1568    (1,1668)              5.47856913E-02
    1569    (1,1669)              5.47856913E-02
    1570    (1,1670)              5.47852900E-02
    1571    (1,1671)              5.47856913E-02
    1572    (1,1672)              5.48240849E-02
    1573    (1,1673)              5.48244863E-02
    1574    (1,1674)              5.47854238E-02
    1592    (1,1694)              5.47855575E-02
    1593    (1,1695)              5.47863602E-02
    1594    (1,1696)              5.47860926E-02
    1595    (1,1697)              5.47859589E-02
    1596    (1,1698)              5.47860926E-02
    1597    (1,1699)              5.48246200E-02
    1598    (1,1700)              5.48242187E-02
    1599    (1,1701)              5.47856913E-02
    1600    (1,1702)              5.47864940E-02
    1601    (1,1703)              5.47860926E-02
    1602    (1,1704)              5.47856913E-02
    1603    (1,1705)              5.47856913E-02
    1604    (1,1706)              5.47898384E-02
    1605    (1,1707)              5.47893032E-02
    1606    (1,1708)              5.48244863E-02
    1607    (1,1709)              5.48244863E-02
    1608    (1,1710)              5.47860926E-02
    1609    (1,1711)              5.47856913E-02
    1610    (1,1712)              5.47858251E-02
    1611    (1,1713)              5.47860926E-02
    1612    (1,1714)              5.47856913E-02
    1613    (1,1715)              5.47854238E-02
    1614    (1,1716)              5.47856913E-02
    1615    (1,1717)              5.48244863E-02
    1616    (1,1718)              5.48240849E-02
    1617    (1,1719)              5.47855575E-02
    1618    (1,1720)              5.47856913E-02
    1619    (1,1721)              5.47784674E-02
    1620    (1,1722)              5.47802065E-02
    1621    (1,1723)              5.47959920E-02
    1622    (1,1724)              5.47971960E-02
    1623    (1,1725)              5.47962596E-02
    1624    (1,1726)              5.47962596E-02
    1625    (1,1727)              5.48251551E-02
    1626    (1,1728)              5.48160584E-02
    1627    (1,1729)              5.47775310E-02
    1628    (1,1730)              5.47653574E-02
    1629    (1,1731)              1.36964897E-02
    1630    (1,1732)              1.36964897E-02
    1631    (1,1733)              1.36970248E-02
    1632    (1,1734)              1.36962222E-02
    1633    (1,1735)              1.37153521E-02
    1634    (1,1736)              1.36964897E-02
    1635    (1,1737)              1.36964897E-02
    1636    (1,1738)              1.37157534E-02
    1637    (1,1739)              1.36956871E-02
    1638    (1,1740)              1.36960884E-02
    1639    (1,1741)              1.36964897E-02
    1640    (1,1742)              1.36966235E-02
    1641    (1,1743)              1.36968910E-02
    1642    (1,1744)              1.36968910E-02
    1643    (1,1745)              1.36962222E-02
    1644    (1,1746)              1.36967573E-02
    1645    (1,1747)              5.47745879E-02
    1646    (1,1748)              5.48284995E-02
    1647    (1,1749)              5.48284995E-02
    1648    (1,1750)              5.47858251E-02
    1649    (1,1751)              5.47858251E-02
    1650    (1,1752)              5.47864940E-02
    1651    (1,1753)              5.47860926E-02
    1652    (1,1754)              5.47858251E-02
    1653    (1,1755)              5.47855575E-02
    1654    (1,1756)              5.47859589E-02
    1655    (1,1757)              5.48244863E-02
    1674    (1,1778)              5.47858251E-02
    1675    (1,1779)              5.47862264E-02
    1676    (1,1780)              5.47854238E-02
    1677    (1,1781)              5.47852900E-02
    1678    (1,1782)              5.47859589E-02
    1679    (1,1783)              5.48247538E-02
    1680    (1,1784)              5.48242187E-02
    1681    (1,1785)              5.47855575E-02
    1682    (1,1786)              5.47855575E-02
    1683    (1,1787)              5.47851562E-02
    1684    (1,1788)              5.47894370E-02
    1685    (1,1789)              5.47898384E-02
    1686    (1,1790)              5.47856913E-02
    1687    (1,1791)              5.47856913E-02
    1688    (1,1792)              5.48238174E-02
    1689    (1,1793)              5.48248876E-02
    1690    (1,1794)              5.47858251E-02
    1691    (1,1795)              5.47855575E-02
    1692    (1,1796)              5.47860926E-02
    1693    (1,1797)              5.47859589E-02
    1694    (1,1798)              5.47863602E-02
    1695    (1,1799)              5.47860926E-02
    1696    (1,1800)              5.47858251E-02
    1697    (1,1801)              5.48236836E-02
    1698    (1,1802)              5.48244863E-02
    1699    (1,1803)              5.47886344E-02
    1700    (1,1804)              5.47895708E-02
    1701    (1,1805)              5.47855575E-02
    1702    (1,1806)              5.47862264E-02
    1703    (1,1807)              5.47859589E-02
    1704    (1,1808)              5.47852900E-02
    1705    (1,1809)              5.47854238E-02
    1706    (1,1810)              5.47854238E-02
    1707    (1,1811)              5.48242187E-02
    1708    (1,1812)              5.48242187E-02
    1709    (1,1813)              5.47856913E-02
    1710    (1,1814)              5.47748555E-02
    1711    (1,1815)              5.47777985E-02
    1712    (1,1816)              1.37153521E-02
    1713    (1,1817)              1.36966235E-02
    1714    (1,1818)              1.36966235E-02
    1715    (1,1819)              1.37158872E-02
    1716    (1,1820)              1.36960884E-02
    1717    (1,1821)              1.36963559E-02
    1718    (1,1822)              1.36960884E-02
    1719    (1,1823)              1.36962222E-02
    1720    (1,1824)              5.47790025E-02
    1721    (1,1825)              5.47895708E-02
    1722    (1,1826)              5.48251551E-02
    1723    (1,1827)              5.48242187E-02
    1724    (1,1828)              5.47852900E-02
    1725    (1,1829)              5.47859589E-02
    1726    (1,1830)              5.47860926E-02
    1727    (1,1831)              5.47848887E-02
    1728    (1,1832)              5.47852900E-02
    1729    (1,1833)              5.47856913E-02
    1749    (1,1855)              5.47852900E-02
    1750    (1,1856)              5.47852900E-02
    1751    (1,1857)              5.47856913E-02
    1752    (1,1858)              5.47859589E-02
    1753    (1,1859)              5.47855575E-02
    1754    (1,1860)              5.48243525E-02
    1755    (1,1861)              5.48243525E-02
    1756    (1,1862)              5.47856913E-02
    1757    (1,1863)              5.47891695E-02
    1758    (1,1864)              5.47897046E-02
    1759    (1,1865)              5.47858251E-02
    1760    (1,1866)              5.47858251E-02
    1761    (1,1867)              5.47859589E-02
    1762    (1,1868)              5.47858251E-02
    1763    (1,1869)              5.48243525E-02
    1764    (1,1870)              5.48239512E-02
    1765    (1,1871)              5.47859589E-02
    1766    (1,1872)              5.47862264E-02
    1767    (1,1873)              5.47854238E-02
    1768    (1,1874)              5.47852900E-02
    1769    (1,1875)              5.47859589E-02
    1770    (1,1876)              5.47856913E-02
    1771    (1,1877)              5.47859589E-02
    1772    (1,1878)              5.48275631E-02
    1773    (1,1879)              5.48276969E-02
    1774    (1,1880)              5.47858251E-02
    1775    (1,1881)              5.47860926E-02
    1776    (1,1882)              5.47858251E-02
    1777    (1,1883)              5.47854238E-02
    1778    (1,1884)              5.47856913E-02
    1779    (1,1885)              5.47855575E-02
    1780    (1,1886)              5.47859589E-02
    1781    (1,1887)              5.47854238E-02
    1782    (1,1888)              5.48248876E-02
    1783    (1,1889)              5.48246200E-02
    1784    (1,1890)              5.47767283E-02
    1785    (1,1891)              1.36958208E-02
    1786    (1,1892)              1.36959546E-02
    1787    (1,1893)              1.36960884E-02
    1788    (1,1894)              1.36963559E-02
    1789    (1,1895)              1.36963559E-02
    1790    (1,1896)              1.36964897E-02
    1791    (1,1897)              1.36966235E-02
    1792    (1,1898)              1.36964897E-02
    1793    (1,1899)              5.48066941E-02
    1794    (1,1900)              5.47893032E-02
    1795    (1,1901)              5.47854238E-02
    1796    (1,1902)              5.47854238E-02
    1797    (1,1903)              5.48244863E-02
    1798    (1,1904)              5.48247538E-02
    1799    (1,1905)              5.47858251E-02
    1800    (1,1906)              5.47862264E-02
    1801    (1,1907)              5.47862264E-02
    1802    (1,1908)              5.47863602E-02
    1823    (1,1931)              5.47856913E-02
    1824    (1,1932)              5.47856913E-02
    1825    (1,1933)              5.47855575E-02
    1826    (1,1934)              5.47851562E-02
    1827    (1,1935)              5.47860926E-02
    1828    (1,1936)              5.48250214E-02
    1829    (1,1937)              5.48286333E-02
    1830    (1,1938)              5.47898384E-02
    1831    (1,1939)              5.47858251E-02
    1832    (1,1940)              5.47856913E-02
    1833    (1,1941)              5.47856913E-02
    1834    (1,1942)              5.47854238E-02
    1835    (1,1943)              5.47854238E-02
    1836    (1,1944)              5.47862264E-02
    1837    (1,1945)              5.48246200E-02
    1838    (1,1946)              5.48244863E-02
    1839    (1,1947)              5.47850224E-02
    1840    (1,1948)              5.47856913E-02
    1841    (1,1949)              5.47860926E-02
    1842    (1,1950)              5.47854238E-02
    1843    (1,1951)              5.47863602E-02
    1844    (1,1952)              5.47897046E-02
    1845    (1,1953)              5.47901059E-02
    1846    (1,1954)              5.48246200E-02
    1847    (1,1955)              5.48250214E-02
    1848    (1,1956)              5.47858251E-02
    1849    (1,1957)              5.47856913E-02
    1850    (1,1958)              5.47852900E-02
    1851    (1,1959)              5.47859589E-02
    1852    (1,1960)              5.47856913E-02
    1853    (1,1961)              5.47863602E-02
    1854    (1,1962)              5.47860926E-02
    1855    (1,1963)              5.47856913E-02
    1856    (1,1964)              5.48244863E-02
    1857    (1,1965)              5.48153895E-02
    1858    (1,1966)              1.36968910E-02
    1859    (1,1967)              1.36964897E-02
    1860    (1,1968)              1.36966235E-02
    1861    (1,1969)              1.36964897E-02
    1862    (1,1970)              1.36963559E-02
    1863    (1,1971)              1.36964897E-02
    1864    (1,1972)              1.36964897E-02
    1865    (1,1973)              1.36983626E-02
    1866    (1,1974)              5.47990689E-02
    1867    (1,1975)              5.47860926E-02
    1868    (1,1976)              5.47852900E-02
    1869    (1,1977)              5.47863602E-02
    1870    (1,1978)              5.47856913E-02
    1871    (1,1979)              5.48243525E-02
    1872    (1,1980)              5.48247538E-02
    1873    (1,1981)              5.47863602E-02
    1874    (1,1982)              5.47854238E-02
    1875    (1,1983)              5.47862264E-02
    1896    (1,2006)              5.47851562E-02
    1897    (1,2007)              5.47858251E-02
    1898    (1,2008)              5.47856913E-02
    1899    (1,2009)              5.47856913E-02
    1900    (1,2010)              5.47894370E-02
    1901    (1,2011)              5.48286333E-02
    1902    (1,2012)              5.48244863E-02
    1903    (1,2013)              5.47855575E-02
    1904    (1,2014)              5.47854238E-02
    1905    (1,2015)              5.47860926E-02
    1906    (1,2016)              5.47862264E-02
    1907    (1,2017)              5.47858251E-02
    1908    (1,2018)              5.47860926E-02
    1909    (1,2019)              5.47854238E-02
    1910    (1,2020)              5.48247538E-02
    1911    (1,2021)              5.48243525E-02
    1912    (1,2022)              5.47856913E-02
    1913    (1,2023)              5.47859589E-02
    1914    (1,2024)              5.47856913E-02
    1915    (1,2025)              5.47903735E-02
    1916    (1,2026)              5.47894370E-02
    1917    (1,2027)              5.47858251E-02
    1918    (1,2028)              5.47862264E-02
    1919    (1,2029)              5.48246200E-02
    1920    (1,2030)              5.48250214E-02
    1921    (1,2031)              5.47856913E-02
    1922    (1,2032)              5.47855575E-02
    1923    (1,2033)              5.47855575E-02
    1924    (1,2034)              5.47862264E-02
    1925    (1,2035)              5.47854238E-02
    1926    (1,2036)              5.47854238E-02
    1927    (1,2037)              5.47856913E-02
    1928    (1,2038)              5.47858251E-02
    1929    (1,2039)              5.48243525E-02
    1930    (1,2040)              5.48092358E-02
    1931    (1,2041)              1.36986301E-02
    1932    (1,2042)              1.36960884E-02
    1933    (1,2043)              1.36968910E-02
    1934    (1,2044)              1.36966235E-02
    1935    (1,2045)              5.47959920E-02
    1936    (1,2046)              5.47862264E-02
    1937    (1,2047)              5.47859589E-02
    1938    (1,2048)              5.47858251E-02
    1939    (1,2049)              5.47856913E-02
    1940    (1,2050)              5.47863602E-02
    1941    (1,2051)              5.48244863E-02
    1942    (1,2052)              5.48242187E-02
    1943    (1,2053)              5.47858251E-02
    1965    (1,2077)              5.47862264E-02
    1966    (1,2078)              5.47854238E-02
    1967    (1,2079)              5.47895708E-02
    1968    (1,2080)              5.47890357E-02
    1969    (1,2081)              5.47860926E-02
    1970    (1,2082)              5.48246200E-02
    1971    (1,2083)              5.48246200E-02
    1972    (1,2084)              5.47854238E-02
    1973    (1,2085)              5.47855575E-02
    1974    (1,2086)              5.47859589E-02
    1975    (1,2087)              5.47855575E-02
    1976    (1,2088)              5.47859589E-02
    1977    (1,2089)              5.47856913E-02
    1978    (1,2090)              5.47860926E-02
    1979    (1,2091)              5.48243525E-02
    1980    (1,2092)              5.48240849E-02
    1981    (1,2093)              5.47852900E-02
    1982    (1,2094)              5.47901059E-02
    1983    (1,2095)              5.47898384E-02
    1984    (1,2096)              5.47854238E-02
    1985    (1,2097)              5.47862264E-02
    1986    (1,2098)              5.47856913E-02
    1987    (1,2099)              5.47859589E-02
    1988    (1,2100)              5.48247538E-02
    1989    (1,2101)              5.48251551E-02
    1990    (1,2102)              5.47851562E-02
    1991    (1,2103)              5.47854238E-02
    1992    (1,2104)              5.47858251E-02
    1993    (1,2105)              5.47856913E-02
    1994    (1,2106)              5.47852900E-02
    1995    (1,2107)              5.47860926E-02
    1996    (1,2108)              5.47854238E-02
    1997    (1,2109)              5.47895708E-02
    1998    (1,2110)              5.48271618E-02
    1999    (1,2111)              1.36963559E-02
    2000    (1,2112)              1.36970248E-02
    2001    (1,2113)              1.37160210E-02
    2002    (1,2114)              1.36963559E-02
    2003    (1,2115)              5.47965271E-02
    2004    (1,2116)              5.47862264E-02
    2005    (1,2117)              5.47863602E-02
    2006    (1,2118)              5.47858251E-02
    2007    (1,2119)              5.47860926E-02
    2008    (1,2120)              5.47859589E-02
    2009    (1,2121)              5.47851562E-02
    2010    (1,2122)              5.48244863E-02
    2011    (1,2123)              5.48238174E-02
    2033    (1,2147)              5.47897046E-02
    2034    (1,2148)              5.47897046E-02
    2035    (1,2149)              5.47855575E-02
    2036    (1,2150)              5.47860926E-02
    2037    (1,2151)              5.47854238E-02
    2038    (1,2152)              5.48239512E-02
    2039    (1,2153)              5.48247538E-02
    2040    (1,2154)              5.47855575E-02
    2041    (1,2155)              5.47855575E-02
    2042    (1,2156)              5.47854238E-02
    2043    (1,2157)              5.47856913E-02
    2044    (1,2158)              5.47856913E-02
    2045    (1,2159)              5.47855575E-02
    2046    (1,2160)              5.47860926E-02
    2047    (1,2161)              5.48242187E-02
    2048    (1,2162)              5.48284995E-02
    2049    (1,2163)              5.47897046E-02
    2050    (1,2164)              5.47858251E-02
    2051    (1,2165)              5.47862264E-02
    2052    (1,2166)              5.47859589E-02
    2053    (1,2167)              5.47858251E-02
    2054    (1,2168)              5.47863602E-02
    2055    (1,2169)              5.47860926E-02
    2056    (1,2170)              5.48247538E-02
    2057    (1,2171)              5.48242187E-02
    2058    (1,2172)              5.47852900E-02
    2059    (1,2173)              5.47858251E-02
    2060    (1,2174)              5.47856913E-02
    2061    (1,2175)              5.47854238E-02
    2062    (1,2176)              5.47852900E-02
    2063    (1,2177)              5.47893032E-02
    2064    (1,2178)              5.47898384E-02
    2065    (1,2179)              5.47943867E-02
    2066    (1,2180)              1.36964897E-02
    2067    (1,2181)              1.37160210E-02
    2068    (1,2182)              1.36962222E-02
    2069    (1,2183)              1.36964897E-02
    2070    (1,2184)              5.48250214E-02
    2071    (1,2185)              5.47856913E-02
    2072    (1,2186)              5.47858251E-02
    2073    (1,2187)              5.47854238E-02
    2074    (1,2188)              5.47860926E-02
    2075    (1,2189)              5.47862264E-02
    2076    (1,2190)              5.47858251E-02
    2077    (1,2191)              5.47860926E-02
    2078    (1,2192)              5.48240849E-02
    2079    (1,2193)              5.48252889E-02
    2080    (1,2194)              5.47895708E-02
    2100    (1,2216)              5.47862264E-02
    2101    (1,2217)              5.47858251E-02
    2102    (1,2218)              5.47855575E-02
    2103    (1,2219)              5.47862264E-02
    2104    (1,2220)              5.47859589E-02
    2105    (1,2221)              5.48240849E-02
    2106    (1,2222)              5.48246200E-02
    2107    (1,2223)              5.47856913E-02
    2108    (1,2224)              5.47859589E-02
    2109    (1,2225)              5.47860926E-02
    2110    (1,2226)              5.47855575E-02
    2111    (1,2227)              5.47859589E-02
    2112    (1,2228)              5.47859589E-02
    2113    (1,2229)              5.47895708E-02
    2114    (1,2230)              5.48280982E-02
    2115    (1,2231)              5.48247538E-02
    2116    (1,2232)              5.47859589E-02
    2117    (1,2233)              5.47862264E-02
    2118    (1,2234)              5.47859589E-02
    2119    (1,2235)              5.47855575E-02
    2120    (1,2236)              5.47864940E-02
    2121    (1,2237)              5.47860926E-02
    2122    (1,2238)              5.47856913E-02
    2123    (1,2239)              5.48248876E-02
    2124    (1,2240)              5.48246200E-02
    2125    (1,2241)              5.47860926E-02
    2126    (1,2242)              5.47859589E-02
    2127    (1,2243)              5.47863602E-02
    2128    (1,2244)              5.47902397E-02
    2129    (1,2245)              5.47895708E-02
    2130    (1,2246)              5.47859589E-02
    2131    (1,2247)              5.47943867E-02
    2132    (1,2248)              1.36960884E-02
    2133    (1,2249)              1.36963559E-02
    2134    (1,2250)              1.36970248E-02
    2135    (1,2251)              1.36963559E-02
    2136    (1,2252)              5.48155233E-02
    2137    (1,2253)              5.48240849E-02
    2138    (1,2254)              5.47858251E-02
    2139    (1,2255)              5.47856913E-02
    2140    (1,2256)              5.47860926E-02
    2141    (1,2257)              5.47860926E-02
    2142    (1,2258)              5.47863602E-02
    2143    (1,2259)              5.47864940E-02
    2144    (1,2260)              5.47859589E-02
    2145    (1,2261)              5.48280982E-02
    2146    (1,2262)              5.48282320E-02
    2147    (1,2263)              5.47859589E-02
    2193    (1,2311)              5.47856913E-02
    2194    (1,2312)              5.47854238E-02
    2195    (1,2313)              5.47856913E-02
    2196    (1,2314)              5.47852900E-02
    2197    (1,2315)              5.47855575E-02
    2198    (1,2316)              5.48242187E-02
    2199    (1,2317)              5.48239512E-02
    2200    (1,2318)              5.47855575E-02
    2201    (1,2319)              5.47855575E-02
    2202    (1,2320)              5.47851562E-02
    2203    (1,2321)              5.47856913E-02
    2204    (1,2322)              5.47902397E-02
    2205    (1,2323)              5.47898384E-02
    2206    (1,2324)              5.47862264E-02
    2207    (1,2325)              5.48246200E-02
    2208    (1,2326)              5.48247538E-02
    2209    (1,2327)              5.47863602E-02
    2210    (1,2328)              5.47859589E-02
    2211    (1,2329)              5.47860926E-02
    2212    (1,2330)              5.47859589E-02
    2213    (1,2331)              5.47852900E-02
    2214    (1,2332)              5.47859589E-02
    2215    (1,2333)              5.47854238E-02
    2216    (1,2334)              5.48242187E-02
    2217    (1,2335)              5.48244863E-02
    2218    (1,2336)              5.47859589E-02
    2219    (1,2337)              5.47894370E-02
    2220    (1,2338)              5.47891695E-02
    2221    (1,2339)              5.47858251E-02
    2222    (1,2340)              5.47858251E-02
    2223    (1,2341)              5.47831496E-02
    2224    (1,2342)              1.36967573E-02
    2225    (1,2343)              1.36959546E-02
    2226    (1,2344)              1.36967573E-02
    2227    (1,2345)              1.36962222E-02
    2228    (1,2346)              5.47771297E-02
    2229    (1,2347)              5.48244863E-02
    2230    (1,2348)              5.48243525E-02
    2231    (1,2349)              5.47856913E-02
    2232    (1,2350)              5.47858251E-02
    2233    (1,2351)              5.47862264E-02
    2234    (1,2352)              5.47856913E-02
    2235    (1,2353)              5.47862264E-02
    2236    (1,2354)              5.47898384E-02
    2237    (1,2355)              5.47895708E-02
    2238    (1,2356)              5.48243525E-02
    2239    (1,2357)              5.48242187E-02
    2240    (1,2358)              5.47945205E-02
    2285    (1,2405)              5.47854238E-02
    2286    (1,2406)              5.47858251E-02
    2287    (1,2407)              5.47859589E-02
    2288    (1,2408)              5.47859589E-02
    2289    (1,2409)              5.47856913E-02
    2290    (1,2410)              5.48247538E-02
    2291    (1,2411)              5.48236836E-02
    2292    (1,2412)              5.47856913E-02
    2293    (1,2413)              5.47854238E-02
    2294    (1,2414)              5.47891695E-02
    2295    (1,2415)              5.47898384E-02
    2296    (1,2416)              5.47855575E-02
    2297    (1,2417)              5.47859589E-02
    2298    (1,2418)              5.47862264E-02
    2299    (1,2419)              5.48247538E-02
    2300    (1,2420)              5.48240849E-02
    2301    (1,2421)              5.47854238E-02
    2302    (1,2422)              5.47859589E-02
    2303    (1,2423)              5.47862264E-02
    2310    (1,2430)              5.47895708E-02
    2311    (1,2431)              5.47852900E-02
    2312    (1,2432)              5.47859589E-02
    2313    (1,2433)              5.47751230E-02
    2314    (1,2434)              1.37158872E-02
    2315    (1,2435)              1.36959546E-02
    2316    (1,2436)              1.36963559E-02
    2317    (1,2437)              1.37153521E-02
    2318    (1,2438)              1.36968910E-02
    2319    (1,2439)              1.36959546E-02
    2320    (1,2440)              1.36967573E-02
    2321    (1,2441)              1.36964897E-02
    2322    (1,2442)              5.47775310E-02
    2323    (1,2443)              5.47854238E-02
    2324    (1,2444)              5.48248876E-02
    2325    (1,2445)              5.48250214E-02
    2326    (1,2446)              5.47858251E-02
    2327    (1,2447)              5.47856913E-02
    2328    (1,2448)              5.47856913E-02
    2329    (1,2449)              5.47895708E-02
    2330    (1,2450)              5.47895708E-02
    2331    (1,2451)              5.47859589E-02
    2332    (1,2452)              5.47860926E-02
    2333    (1,2453)              5.48121789E-02
    2334    (1,2454)              1.36963559E-02
    2335    (1,2455)              1.36962222E-02
    2336    (1,2456)              1.37160210E-02
    2337    (1,2457)              1.36962222E-02
    2338    (1,2458)              1.36968910E-02
    2339    (1,2459)              1.36962222E-02
    2340    (1,2460)              1.36960884E-02
    2341    (1,2461)              1.36970248E-02
    2367    (1,2489)              5.47858251E-02
    2368    (1,2490)              5.47856913E-02
    2369    (1,2491)              5.47855575E-02
    2370    (1,2492)              5.47859589E-02
    2371    (1,2493)              5.47858251E-02
    2372    (1,2494)              5.48243525E-02
    2373    (1,2495)              5.48238174E-02
    2374    (1,2496)              5.47897046E-02
    2375    (1,2497)              5.47893032E-02
    2376    (1,2498)              5.47859589E-02
    2377    (1,2499)              5.47855575E-02
    2378    (1,2500)              5.47859589E-02
    2379    (1,2501)              5.47856913E-02
    2380    (1,2502)              5.47859589E-02
    2381    (1,2503)              5.48248876E-02
    2382    (1,2504)              5.48248876E-02
    2390    (1,2512)              5.48284995E-02
    2391    (1,2513)              5.48244863E-02
    2392    (1,2514)              5.47859589E-02
    2393    (1,2515)              5.47859589E-02
    2394    (1,2516)              5.47753906E-02
    2395    (1,2517)              1.36968910E-02
    2396    (1,2518)              1.36970248E-02
    2397    (1,2519)              1.36963559E-02
    2398    (1,2520)              1.36963559E-02
    2399    (1,2521)              5.48169948E-02
    2400    (1,2522)              5.47859589E-02
    2401    (1,2523)              5.47856913E-02
    2402    (1,2524)              5.47855575E-02
    2403    (1,2525)              5.48250214E-02
    2404    (1,2526)              5.48243525E-02
    2405    (1,2527)              5.47859589E-02
    2406    (1,2528)              5.47894370E-02
    2407    (1,2529)              5.47899721E-02
    2408    (1,2530)              5.47860926E-02
    2409    (1,2531)              5.47858251E-02
    2410    (1,2532)              5.47951894E-02
    2411    (1,2533)              1.36971586E-02
    2412    (1,2534)              1.36960884E-02
    2413    (1,2535)              1.36964897E-02
    2414    (1,2536)              1.36967573E-02
    2415    (1,2537)              1.36962222E-02
    2416    (1,2538)              1.37157534E-02
    2417    (1,2539)              1.36967573E-02
    2418    (1,2540)              1.36959546E-02
    2419    (1,2541)              5.48167273E-02
    2442    (1,2567)              5.47854238E-02
    2443    (1,2568)              5.47855575E-02
    2444    (1,2569)              5.47856913E-02
    2445    (1,2570)              5.47860926E-02
    2446    (1,2571)              5.47859589E-02
    2447    (1,2572)              5.48287671E-02
    2448    (1,2573)              5.48284995E-02
    2449    (1,2574)              5.47854238E-02
    2450    (1,2575)              5.47854238E-02
    2451    (1,2576)              5.47855575E-02
    2452    (1,2577)              5.47856913E-02
    2453    (1,2578)              5.47852900E-02
    2454    (1,2579)              5.47858251E-02
    2455    (1,2580)              5.47856913E-02
    2456    (1,2581)              5.48244863E-02
    2465    (1,2590)              5.48244863E-02
    2466    (1,2591)              5.48244863E-02
    2467    (1,2592)              5.47856913E-02
    2468    (1,2593)              5.47744541E-02
    2469    (1,2594)              1.36964897E-02
    2470    (1,2595)              1.36984963E-02
    2471    (1,2596)              1.36983626E-02
    2472    (1,2597)              1.36968910E-02
    2473    (1,2598)              1.36964897E-02
    2474    (1,2599)              1.36960884E-02
    2475    (1,2600)              1.36962222E-02
    2476    (1,2601)              1.36959546E-02
    2477    (1,2602)              5.47950556E-02
    2478    (1,2603)              5.47856913E-02
    2479    (1,2604)              5.47855575E-02
    2480    (1,2605)              5.47856913E-02
    2481    (1,2606)              5.48244863E-02
    2482    (1,2607)              5.48282320E-02
    2483    (1,2608)              5.47890357E-02
    2484    (1,2609)              5.47855575E-02
    2485    (1,2610)              5.47862264E-02
    2486    (1,2611)              5.47858251E-02
    2487    (1,2612)              5.47832833E-02
    2488    (1,2613)              1.36966235E-02
    2489    (1,2614)              1.36964897E-02
    2490    (1,2615)              1.36967573E-02
    2491    (1,2616)              1.36960884E-02
    2492    (1,2617)              5.47883668E-02
    2493    (1,2618)              5.48254227E-02
    2510    (1,2637)              5.47858251E-02
    2511    (1,2638)              5.47855575E-02
    2512    (1,2639)              5.47855575E-02
    2513    (1,2640)              5.47889019E-02
    2514    (1,2641)              5.47898384E-02
    2515    (1,2642)              5.48236836E-02
    2516    (1,2643)              5.48240849E-02
    2517    (1,2644)              5.47852900E-02
    2518    (1,2645)              5.47855575E-02
    2519    (1,2646)              5.47858251E-02
    2520    (1,2647)              5.47858251E-02
    2521    (1,2648)              5.47855575E-02
    2522    (1,2649)              5.47856913E-02
    2533    (1,2660)              5.48236836E-02
    2534    (1,2661)              5.48243525E-02
    2535    (1,2662)              5.47850224E-02
    2536    (1,2663)              5.47661601E-02
    2537    (1,2664)              1.36964897E-02
    2538    (1,2665)              1.36966235E-02
    2539    (1,2666)              1.36967573E-02
    2540    (1,2667)              1.36962222E-02
    2541    (1,2668)              5.48041523E-02
    2542    (1,2669)              5.47850224E-02
    2543    (1,2670)              5.47848887E-02
    2544    (1,2671)              5.47856913E-02
    2545    (1,2672)              5.47899721E-02
    2546    (1,2673)              5.48286333E-02
    2547    (1,2674)              5.48224796E-02
    2548    (1,2675)              5.47951894E-02
    2549    (1,2676)              5.47949218E-02
    2550    (1,2677)              5.47834171E-02
    2551    (1,2678)              1.37161547E-02
    2552    (1,2679)              1.36967573E-02
    2553    (1,2680)              1.36964897E-02
    2554    (1,2681)              1.37152183E-02
    2555    (1,2682)              1.36970248E-02
    2556    (1,2683)              1.36964897E-02
    2557    (1,2684)              1.36959546E-02
    2558    (1,2685)              1.36966235E-02
    2559    (1,2686)              5.47771297E-02
    2560    (1,2687)              5.47862264E-02
    2577    (1,2706)              5.47852900E-02
    2578    (1,2707)              5.47893032E-02
    2579    (1,2708)              5.47887681E-02
    2580    (1,2709)              5.47860926E-02
    2581    (1,2710)              5.47852900E-02
    2582    (1,2711)              5.48242187E-02
    2583    (1,2712)              5.48242187E-02
    2584    (1,2713)              5.47854238E-02
    2585    (1,2714)              5.47855575E-02
    2586    (1,2715)              5.47859589E-02
    2587    (1,2716)              5.47856913E-02
    2601    (1,2730)              5.48243525E-02
    2602    (1,2731)              5.47771297E-02
    2603    (1,2732)              1.36964897E-02
    2604    (1,2733)              1.36964897E-02
    2605    (1,2734)              1.36964897E-02
    2606    (1,2735)              1.36959546E-02
    2607    (1,2736)              1.36960884E-02
    2608    (1,2737)              1.36968910E-02
    2609    (1,2738)              1.36958208E-02
    2610    (1,2739)              1.36962222E-02
    2611    (1,2740)              5.48056239E-02
    2612    (1,2741)              5.47854238E-02
    2613    (1,2742)              5.47893032E-02
    2614    (1,2743)              5.47794038E-02
    2615    (1,2744)              5.47835509E-02
    2616    (1,2745)              1.36966235E-02
    2617    (1,2746)              1.37158872E-02
    2618    (1,2747)              1.36966235E-02
    2619    (1,2748)              1.36967573E-02
    2620    (1,2749)              1.36958208E-02
    2621    (1,2750)              1.36959546E-02
    2622    (1,2751)              1.37154859E-02
    2623    (1,2752)              1.36956871E-02
    2624    (1,2753)              1.36968910E-02
    2625    (1,2754)              1.36963559E-02
    2626    (1,2755)              1.36960884E-02
    2627    (1,2756)              1.36968910E-02
    2628    (1,2757)              1.36963559E-02
    2629    (1,2758)              1.36968910E-02
    2630    (1,2759)              1.36962222E-02
    2631    (1,2760)              1.36958208E-02
    2632    (1,2761)              1.36962222E-02
    2633    (1,2762)              1.36959546E-02
    2634    (1,2763)              1.36963559E-02
    2635    (1,2764)              1.36956871E-02
    2636    (1,2765)              5.48069616E-02
    2637    (1,2766)              5.47854238E-02
    2655    (1,2786)              5.47895708E-02
    2656    (1,2787)              5.47855575E-02
    2657    (1,2788)              5.47862264E-02
    2658    (1,2789)              5.47856913E-02
    2659    (1,2790)              5.47856913E-02
    2660    (1,2791)              5.48246200E-02
    2661    (1,2792)              5.48248876E-02
    2662    (1,2793)              5.47855575E-02
    2663    (1,2794)              5.47864940E-02
    2679    (1,2810)              5.48244863E-02
    2680    (1,2811)              5.47668289E-02
    2681    (1,2812)              1.36968910E-02
    2682    (1,2813)              1.36970248E-02
    2683    (1,2814)              1.36958208E-02
    2684    (1,2815)              1.36966235E-02
    2685    (1,2816)              1.36963559E-02
    2686    (1,2817)              1.36968910E-02
    2687    (1,2818)              1.36959546E-02
    2688    (1,2819)              1.36960884E-02
    2689    (1,2820)              5.48077643E-02
    2690    (1,2821)              5.48069616E-02
    2691    (1,2822)              1.36964897E-02
    2692    (1,2823)              1.36966235E-02
    2693    (1,2824)              1.36958208E-02
    2694    (1,2825)              1.36959546E-02
    2695    (1,2826)              1.36964897E-02
    2696    (1,2827)              1.36967573E-02
    2697    (1,2828)              1.36963559E-02
    2698    (1,2829)              1.36958208E-02
    2699    (1,2830)              1.36967573E-02
    2700    (1,2831)              1.36970248E-02
    2701    (1,2832)              1.36962222E-02
    2702    (1,2833)              1.36963559E-02
    2703    (1,2834)              5.48164597E-02
    2704    (1,2835)              5.48163259E-02
    2724    (1,2857)              5.47858251E-02
    2725    (1,2858)              5.47859589E-02
    2726    (1,2859)              5.47858251E-02
    2727    (1,2860)              5.47855575E-02
    2728    (1,2861)              5.47858251E-02
    2729    (1,2862)              5.48247538E-02
    2730    (1,2863)              5.48247538E-02
    2748    (1,2881)              5.48247538E-02
    2749    (1,2882)              5.47656250E-02
    2750    (1,2883)              1.36963559E-02
    2751    (1,2884)              1.36963559E-02
    2752    (1,2885)              1.36962222E-02
    2753    (1,2886)              1.36987639E-02
    2755    (1,2888)              1.36966235E-02
    2757    (1,2890)              1.36959546E-02
    2758    (1,2891)              1.36963559E-02
    2759    (1,2892)              1.36966235E-02
    2760    (1,2893)              1.36960884E-02
    2761    (1,2894)              1.36958208E-02
    2762    (1,2895)              1.37164223E-02
    2763    (1,2896)              1.36968910E-02
    2764    (1,2897)              1.36962222E-02
    2765    (1,2898)              1.37156196E-02
    2787    (1,2922)              5.47864940E-02
    2788    (1,2923)              5.47855575E-02
    2789    (1,2924)              5.47851562E-02
    2790    (1,2925)              5.47854238E-02
    2791    (1,2926)              5.47854238E-02
    2835    (1,2972)              5.47858251E-02
    2836    (1,2973)              5.47856913E-02
    2837    (1,2974)              5.47863602E-02
    2878    (1,3019)              5.47862264E-02
    2879    (1,3020)              5.47856913E-02
 -----------------------------------------------



 UBDSV06 SAVING              SFR IN MODEL EXPERIMENTAL     PACKAGE EXPERIMENTAL    CONNECTED TO MODEL EXPERIMENTAL     PACKAGE SFR              ON UNIT   1020 AT TIME STEP      1, STRESS PERIOD      1

 SFR PACKAGE (SFR) FLOW RATES   PERIOD      1   STEP        1
 -----------------------------------------------
   NUMBER   CELLID                    RATE      
 -----------------------------------------------
     1      (2,2565)              0.0000000     
     2      (2,2563)              0.0000000     
     3      (2,2561)              0.0000000     
     4      (2,2560)              0.0000000     
     5      (2,2557)              0.0000000     
     6      (2,2485)              0.0000000     
     7      (2,2484)              0.0000000     
     8      (2,2481)              0.0000000     
     9      (2,2479)              0.0000000     
     10     (2,2478)              0.0000000     
     11     (2,2399)              0.0000000     
     12     (2,2396)              0.0000000     
     13     (2,2394)              0.0000000     
     14     (2,2393)              0.0000000     
     15     (2,2304)              0.0000000     
     16     (2,2301)              0.0000000     
     17     (2,2300)              0.0000000     
     18     (2,2389)              0.0000000     
     19     (2,2386)              0.0000000     
     20     (2,2385)              0.0000000     
     21     (2,2296)              0.0000000     
     22     (2,2293)              0.0000000     
     23     (2,2292)              0.0000000     
     24     (2,2289)              0.0000000     
     25     (2,2288)              0.0000000     
     26     (2,2286)              0.0000000     
     27     (2,2283)              0.0000000     
     28     (2,2282)              0.0000000     
     29     (2,2279)              0.0000000     
     30     (2,2278)              0.0000000     
     31     (2,2275)              0.0000000     
     32     (2,2277)              0.0000000     
     33     (2,2276)              0.0000000     
     34     (2,2273)              0.0000000     
     35     (2,2272)              0.0000000     
     36     (2,2376)              0.0000000     
     37     (2,2373)              0.0000000     
     38     (2,2372)              0.0000000     
     39     (2,2369)              0.0000000     
     40     (2,2368)              0.0000000     
     41     (2,2370)              0.0000000     
     42     (2,2367)              0.0000000     
     43     (2,2366)              0.0000000     
     44     (2,2363)              0.0000000     
     45     (2,2362)              0.0000000     
     46     (2,2462)              0.0000000     
     47     (1,2459)              0.0000000     
     48     (1,2458)              0.0000000     
     49     (1,2460)              0.0000000     
     50     (1,2457)              0.0000000     
     51     (1,2538)              0.0000000     
     52     (1,2537)              0.0000000     
     53     (1,2539)              0.0000000     
     54     (1,2536)              0.0000000     
     55     (1,2614)              0.0000000     
     56     (1,2613)              0.0000000     
     57     (1,2615)              0.0000000     
     58     (1,2682)              0.0000000     
     59     (1,2684)              0.0000000     
     60     (1,2681)              0.0000000     
     61     (1,2762)              0.0000000     
     62     (1,2761)              0.0000000     
     63     (1,2763)              0.0000000     
     64     (1,2760)              0.0000000     
     65     (1,2759)              0.0000000     
     66     (1,2756)              0.0000000     
     67     (1,2755)              0.0000000     
     68     (1,2752)              0.0000000     
     69     (1,2751)              0.0000000     
     70     (1,2748)              0.0000000     
     71     (1,2831)              0.0000000     
     72     (1,2830)              0.0000000     
     73     (1,2827)              0.0000000     
     74     (1,2829)              0.0000000     
     75     (1,2828)              0.0000000     
     76     (1,2825)              0.0000000     
     77     (1,2824)              0.0000000     
     78     (1,2895)              0.0000000     
     79     (1,2892)              0.0000000     
     80     (1,2891)              0.0000000     
     81     (1,2888)              0.0000000     
     82     (2,2887)              0.0000000     
     83     (1,2884)              0.0000000     
     84     (1,2819)              0.0000000     
     85     (1,2818)              0.0000000     
     86     (1,2816)              0.0000000     
     87     (1,2813)              0.0000000     
     88     (1,2739)              0.0000000     
     89     (1,2738)              0.0000000     
     90     (1,2736)              0.0000000     
     91     (1,2733)              0.0000000     
     92     (1,2667)              0.0000000     
     93     (1,2666)              0.0000000     
     94     (1,2664)              0.0000000     
     95     (1,2600)              0.0000000     
     96     (1,2597)              0.0000000     
     97     (1,2595)              0.0000000     
     98     (1,2520)              0.0000000     
     99     (1,2519)              0.0000000     
    100     (1,2517)              0.0000000     
    101     (1,2436)              0.0000000     
    102     (1,2434)              0.0000000     
    103     (1,2435)              0.0000000     
    104     (1,2438)              0.0000000     
    105     (1,2344)              0.0000000     
    106     (1,2342)              0.0000000     
    107     (1,2343)              0.0000000     
    108     (1,2251)              0.0000000     
    109     (1,2249)              0.0000000     
    110     (1,2183)              0.0000000     
    111     (1,2181)              0.0000000     
    112     (1,2114)              0.0000000     
    113     (1,2112)              0.0000000     
    114     (1,2044)              0.0000000     
    115     (1,2043)              0.0000000     
    116     (1,2041)              0.0000000     
    117     (1,1972)              0.0000000     
    118     (1,1969)              0.0000000     
    119     (1,1967)              0.0000000     
    120     (1,1966)              0.0000000     
    121     (1,1893)              0.0000000     
    122     (1,1894)              0.0000000     
    123     (1,1892)              0.0000000     
    124     (1,1895)              0.0000000     
    125     (1,1896)              0.0000000     
    126     (1,1819)              0.0000000     
    127     (1,1822)              0.0000000     
    128     (1,1820)              0.0000000     
    129     (1,1745)              0.0000000     
    130     (1,1742)              0.0000000     
    131     (1,1741)              0.0000000     
    132     (1,1738)              0.0000000     
    133     (1,1737)              0.0000000     
    134     (1,1735)              0.0000000     
    135     (1,1732)              0.0000000     
    136     (1,1653)              0.0000000     
    137     (1,1651)              0.0000000     
    138     (1,1654)              0.0000000     
    139     (1,1655)              0.0000000     
    140     (1,1658)              0.0000000     
    141     (1,1548)              0.0000000     
    142     (1,1546)              0.0000000     
    143     (1,1543)              0.0000000     
    144     (1,1453)              0.0000000     
    145     (1,1452)              0.0000000     
    146     (1,1449)              0.0000000     
    147     (1,1448)              0.0000000     
    148     (1,1538)              0.0000000     
    149     (1,1535)              0.0000000     
    150     (1,1537)              0.0000000     
    151     (1,1647)              0.0000000     
    152     (1,1649)              0.0000000     
    153     (1,1648)              0.0000000     
    154     (1,1645)              0.0000000     
    155     (1,1644)              0.0000000     
    156     (1,1642)              0.0000000     
    157     (1,1639)              0.0000000     
    158     (1,1638)              0.0000000     
    159     (1,1640)              0.0000000     
    160     (1,1637)              0.0000000     
    161     (1,1636)              0.0000000     
    162     (1,1633)              0.0000000     
    163     (1,1632)              0.0000000     
    164     (1,1629)              0.0000000     
    165     (1,1628)              0.0000000     
    166     (1,1625)              0.0000000     
    167     (1,1624)              0.0000000     
    168     (1,1621)              0.0000000     
    169     (1,1620)              0.0000000     
    170     (1,1617)              0.0000000     
    171     (1,1615)              0.0000000     
    172     (1,1614)              0.0000000     
    173     (1,1611)              0.0000000     
    174     (1,1525)              0.0000000     
    175     (1,1524)              0.0000000     
    176     (1,1521)              0.0000000     
    177     (1,1519)              0.0000000     
    178     (1,1518)              0.0000000     
    179     (1,1515)              0.0000000     
    180     (1,1431)              0.0000000     
    181     (1,1429)              0.0000000     
    182     (1,1432)              0.0000000     
    183     (1,1353)              0.0000000     
    184     (1,1351)              0.0000000     
    185     (1,1274)              0.0000000     
    186     (1,1272)              0.0000000     
    187     (1,1194)              0.0000000     
    188     (1,1192)             -38.714953     
    189     (1,1189)             -0.82818466    
    190     (1,1111)             -61.712394     
    191     (1,1109)             -40.918014     
    192     (1,1108)             -14.634325     
    193     (1,1030)             -32.177460     
    194     (1,1028)             -33.248887     
    195     (1,950)              -9.6965452     
    196     (1,947)              -61.137006     
    197     (1,945)              -48.924033     
    198     (1,944)              -44.672483     
    199     (1,866)              -27.058739     
    200     (1,863)              -33.178019     
    201     (1,861)              -34.807683     
    202     (1,860)              -17.336691     
    203     (1,782)              -34.541487     
    204     (1,779)              -7.8629497     
    205     (1,777)              -38.359296     
    206     (1,700)              -0.76224032    
    207     (1,699)              -23.970543     
    208     (1,697)              -6.7281773     
    209     (1,694)              -1.5356747     
    210     (1,618)              -30.460349     
    211     (1,617)              -17.411455     
    212     (1,615)              -26.304550     
    213     (1,612)              -0.87918761    
    214     (1,537)               7.2390863     
    215     (1,535)              -74.109507     
    216     (1,534)              -79.752902     
    217     (1,531)              -1.2614838     
    218     (1,457)              -60.471837     
    219     (1,455)              -59.685918     
    220     (1,382)              -34.555748     
    221     (1,381)              -48.581256     
    222     (1,378)              -32.679489     
    223     (1,377)              -26.176227     
    224     (1,375)              -7.9817541     
    225     (1,372)              -26.287250     
    226     (1,371)              -5.3118826     
    227     (1,299)              -16.498976     
    228     (1,296)              -7.3078940     
    229     (1,294)              -2.3809994     
    230     (1,293)              -4.4692217     
    231     (1,290)               9.7085810     
    232     (1,289)               21.398736     
    233     (1,286)               6.4636383     
    234     (1,250)               38.521119     
    235     (1,249)               81.461785     
    236     (1,246)              -12.996128     
    237     (1,244)              -37.255243     
    238     (1,243)              -138.54888     
    239     (1,209)              -68.667740     
    240     (1,206)              -96.772686     
    241     (1,204)              -53.868957     
    242     (1,203)              -80.141896     
    243     (1,171)              -46.342324     
    244     (1,168)              -83.798034     
    245     (1,166)              -7.2053735     
    246     (1,165)              -87.947773     
    247     (1,135)              -6.8969962     
    248     (1,132)              -82.249078     
    249     (1,130)              -6.6476660     
    250     (1,129)              -78.459501     
    251     (1,101)              -6.4317760     
    252     (1,98)               -75.722653     
    253     (1,96)               -6.2876968     
    254     (1,95)               -73.189824     
    255     (1,69)               -6.1303322     
    256     (1,66)               -70.323769     
    257     (1,65)               -3.5570067     
    258     (1,63)               -67.004323     
    259     (1,60)               -16.506534     
    260     (1,36)               -122.53340     
    261     (1,35)               -51.837770     
    262     (1,33)               -100.00948     
    263     (1,30)               -92.813847     
    264     (1,8)                -110.92090     
    265     (1,7)                -131.79541     
    266     (1,5)                -23.163124     
 -----------------------------------------------



 UBDSV06 SAVING     FLOW-JA-FACE IN MODEL EXPERIMENTAL     PACKAGE SFR             CONNECTED TO MODEL EXPERIMENTAL     PACKAGE SFR              ON UNIT   1016 AT TIME STEP      1, STRESS PERIOD      1
 UBDSV06 SAVING              GWF IN MODEL EXPERIMENTAL     PACKAGE SFR             CONNECTED TO MODEL EXPERIMENTAL     PACKAGE EXPERIMENTAL     ON UNIT   1016 AT TIME STEP      1, STRESS PERIOD      1
 UBDSV06 SAVING         RAINFALL IN MODEL EXPERIMENTAL     PACKAGE SFR             CONNECTED TO MODEL EXPERIMENTAL     PACKAGE SFR              ON UNIT   1016 AT TIME STEP      1, STRESS PERIOD      1
 UBDSV06 SAVING      EVAPORATION IN MODEL EXPERIMENTAL     PACKAGE SFR             CONNECTED TO MODEL EXPERIMENTAL     PACKAGE SFR              ON UNIT   1016 AT TIME STEP      1, STRESS PERIOD      1
 UBDSV06 SAVING           RUNOFF IN MODEL EXPERIMENTAL     PACKAGE SFR             CONNECTED TO MODEL EXPERIMENTAL     PACKAGE SFR              ON UNIT   1016 AT TIME STEP      1, STRESS PERIOD      1
 UBDSV06 SAVING       EXT-INFLOW IN MODEL EXPERIMENTAL     PACKAGE SFR             CONNECTED TO MODEL EXPERIMENTAL     PACKAGE SFR              ON UNIT   1016 AT TIME STEP      1, STRESS PERIOD      1
 UBDSV06 SAVING      EXT-OUTFLOW IN MODEL EXPERIMENTAL     PACKAGE SFR             CONNECTED TO MODEL EXPERIMENTAL     PACKAGE SFR              ON UNIT   1016 AT TIME STEP      1, STRESS PERIOD      1
 UBDSV06 SAVING          STORAGE IN MODEL EXPERIMENTAL     PACKAGE SFR             CONNECTED TO MODEL EXPERIMENTAL     PACKAGE SFR              ON UNIT   1016 AT TIME STEP      1, STRESS PERIOD      1
1
  HEAD IN LAYER   1 AT END OF TIME STEP   1 IN STRESS PERIOD    1
  ---------------------------------------------------------------------------

                1               2               3               4               5               6               7               8               9              10
               11              12              13              14              15              16              17              18              19              20
               21              22              23              24              25              26              27              28              29              30
               31              32              33              34              35              36              37              38              39              40
               41              42              43              44              45              46              47              48              49              50
               51              52              53              54              55              56              57              58              59              60
               61              62              63              64              65              66              67              68              69              70
               71              72              73              74              75              76              77              78              79              80
               81              82              83              84              85              86              87              88              89              90
               91              92              93              94              95              96              97              98              99             100
              101             102             103             104             105             106             107             108             109             110
              111             112             113             114             115             116             117             118             119             120
              121             122             123             124             125             126             127             128             129             130
              131             132             133             134             135             136             137             138             139             140
              141             142             143             144             145             146             147             148             149             150
              151             152             153             154             155             156             157             158             159             160
              161             162             163             164             165             166             167             168             169             170
              171             172             173             174             175             176             177             178             179             180
              181             182             183             184             185             186             187             188             189             190
              191             192             193             194             195             196             197             198             199             200
              201             202             203             204             205             206             207             208             209             210
              211             212             213             214             215             216             217             218             219             220
              221             222             223             224             225             226             227             228             229             230
              231             232             233             234             235             236             237             238             239             240
              241             242             243             244             245             246             247             248             249             250
              251             252             253             254             255             256             257             258             259             260
              261             262             263             264             265             266             267             268             269             270
              271             272             273             274             275             276             277             278             279             280
              281             282             283             284             285             286             287             288             289             290
              291             292             293             294             295             296             297             298             299             300
              301             302             303             304             305             306             307             308             309             310
              311             312             313             314             315             316             317             318             319             320
              321             322             323             324             325             326             327             328             329             330
              331             332             333             334             335             336             337             338             339             340
              341             342             343             344             345             346             347             348             349             350
              351             352             353             354             355             356             357             358             359             360
              361             362             363             364             365             366             367             368             369             370
              371             372             373             374             375             376             377             378             379             380
              381             382             383             384             385             386             387             388             389             390
              391             392             393             394             395             396             397             398             399             400
              401             402             403             404             405             406             407             408             409             410
              411             412             413             414             415             416             417             418             419             420
              421             422             423             424             425             426             427             428             429             430
              431             432             433             434             435             436             437             438             439             440
              441             442             443             444             445             446             447             448             449             450
              451             452             453             454             455             456             457             458             459             460
              461             462             463             464             465             466             467             468             469             470
              471             472             473             474             475             476             477             478             479             480
              481             482             483             484             485             486             487             488             489             490
              491             492             493             494             495             496             497             498             499             500
              501             502             503             504             505             506             507             508             509             510
              511             512             513             514             515             516             517             518             519             520
              521             522             523             524             525             526             527             528             529             530
              531             532             533             534             535             536             537             538             539             540
              541             542             543             544             545             546             547             548             549             550
              551             552             553             554             555             556             557             558             559             560
              561             562             563             564             565             566             567             568             569             570
              571             572             573             574             575             576             577             578             579             580
              581             582             583             584             585             586             587             588             589             590
              591             592             593             594             595             596             597             598             599             600
              601             602             603             604             605             606             607             608             609             610
              611             612             613             614             615             616             617             618             619             620
              621             622             623             624             625             626             627             628             629             630
              631             632             633             634             635             636             637             638             639             640
              641             642             643             644             645             646             647             648             649             650
              651             652             653             654             655             656             657             658             659             660
              661             662             663             664             665             666             667             668             669             670
              671             672             673             674             675             676             677             678             679             680
              681             682             683             684             685             686             687             688             689             690
              691             692             693             694             695             696             697             698             699             700
              701             702             703             704             705             706             707             708             709             710
              711             712             713             714             715             716             717             718             719             720
              721             722             723             724             725             726             727             728             729             730
              731             732             733             734             735             736             737             738             739             740
              741             742             743             744             745             746             747             748             749             750
              751             752             753             754             755             756             757             758             759             760
              761             762             763             764             765             766             767             768             769             770
              771             772             773             774             775             776             777             778             779             780
              781             782             783             784             785             786             787             788             789             790
              791             792             793             794             795             796             797             798             799             800
              801             802             803             804             805             806             807             808             809             810
              811             812             813             814             815             816             817             818             819             820
              821             822             823             824             825             826             827             828             829             830
              831             832             833             834             835             836             837             838             839             840
              841             842             843             844             845             846             847             848             849             850
              851             852             853             854             855             856             857             858             859             860
              861             862             863             864             865             866             867             868             869             870
              871             872             873             874             875             876             877             878             879             880
              881             882             883             884             885             886             887             888             889             890
              891             892             893             894             895             896             897             898             899             900
              901             902             903             904             905             906             907             908             909             910
              911             912             913             914             915             916             917             918             919             920
              921             922             923             924             925             926             927             928             929             930
              931             932             933             934             935             936             937             938             939             940
              941             942             943             944             945             946             947             948             949             950
              951             952             953             954             955             956             957             958             959             960
              961             962             963             964             965             966             967             968             969             970
              971             972             973             974             975             976             977             978             979             980
              981             982             983             984             985             986             987             988             989             990
              991             992             993             994             995             996             997             998             999            1000
             1001            1002            1003            1004            1005            1006            1007            1008            1009            1010
             1011            1012            1013            1014            1015            1016            1017            1018            1019            1020
             1021            1022            1023            1024            1025            1026            1027            1028            1029            1030
             1031            1032            1033            1034            1035            1036            1037            1038            1039            1040
             1041            1042            1043            1044            1045            1046            1047            1048            1049            1050
             1051            1052            1053            1054            1055            1056            1057            1058            1059            1060
             1061            1062            1063            1064            1065            1066            1067            1068            1069            1070
             1071            1072            1073            1074            1075            1076            1077            1078            1079            1080
             1081            1082            1083            1084            1085            1086            1087            1088            1089            1090
             1091            1092            1093            1094            1095            1096            1097            1098            1099            1100
             1101            1102            1103            1104            1105            1106            1107            1108            1109            1110
             1111            1112            1113            1114            1115            1116            1117            1118            1119            1120
             1121            1122            1123            1124            1125            1126            1127            1128            1129            1130
             1131            1132            1133            1134            1135            1136            1137            1138            1139            1140
             1141            1142            1143            1144            1145            1146            1147            1148            1149            1150
             1151            1152            1153            1154            1155            1156            1157            1158            1159            1160
             1161            1162            1163            1164            1165            1166            1167            1168            1169            1170
             1171            1172            1173            1174            1175            1176            1177            1178            1179            1180
             1181            1182            1183            1184            1185            1186            1187            1188            1189            1190
             1191            1192            1193            1194            1195            1196            1197            1198            1199            1200
             1201            1202            1203            1204            1205            1206            1207            1208            1209            1210
             1211            1212            1213            1214            1215            1216            1217            1218            1219            1220
             1221            1222            1223            1224            1225            1226            1227            1228            1229            1230
             1231            1232            1233            1234            1235            1236            1237            1238            1239            1240
             1241            1242            1243            1244            1245            1246            1247            1248            1249            1250
             1251            1252            1253            1254            1255            1256            1257            1258            1259            1260
             1261            1262            1263            1264            1265            1266            1267            1268            1269            1270
             1271            1272            1273            1274            1275            1276            1277            1278            1279            1280
             1281            1282            1283            1284            1285            1286            1287            1288            1289            1290
             1291            1292            1293            1294            1295            1296            1297            1298            1299            1300
             1301            1302            1303            1304            1305            1306            1307            1308            1309            1310
             1311            1312            1313            1314            1315            1316            1317            1318            1319            1320
             1321            1322            1323            1324            1325            1326            1327            1328            1329            1330
             1331            1332            1333            1334            1335            1336            1337            1338            1339            1340
             1341            1342            1343            1344            1345            1346            1347            1348            1349            1350
             1351            1352            1353            1354            1355            1356            1357            1358            1359            1360
             1361            1362            1363            1364            1365            1366            1367            1368            1369            1370
             1371            1372            1373            1374            1375            1376            1377            1378            1379            1380
             1381            1382            1383            1384            1385            1386            1387            1388            1389            1390
             1391            1392            1393            1394            1395            1396            1397            1398            1399            1400
             1401            1402            1403            1404            1405            1406            1407            1408            1409            1410
             1411            1412            1413            1414            1415            1416            1417            1418            1419            1420
             1421            1422            1423            1424            1425            1426            1427            1428            1429            1430
             1431            1432            1433            1434            1435            1436            1437            1438            1439            1440
             1441            1442            1443            1444            1445            1446            1447            1448            1449            1450
             1451            1452            1453            1454            1455            1456            1457            1458            1459            1460
             1461            1462            1463            1464            1465            1466            1467            1468            1469            1470
             1471            1472            1473            1474            1475            1476            1477            1478            1479            1480
             1481            1482            1483            1484            1485            1486            1487            1488            1489            1490
             1491            1492            1493            1494            1495            1496            1497            1498            1499            1500
             1501            1502            1503            1504            1505            1506            1507            1508            1509            1510
             1511            1512            1513            1514            1515            1516            1517            1518            1519            1520
             1521            1522            1523            1524            1525            1526            1527            1528            1529            1530
             1531            1532            1533            1534            1535            1536            1537            1538            1539            1540
             1541            1542            1543            1544            1545            1546            1547            1548            1549            1550
             1551            1552            1553            1554            1555            1556            1557            1558            1559            1560
             1561            1562            1563            1564            1565            1566            1567            1568            1569            1570
             1571            1572            1573            1574            1575            1576            1577            1578            1579            1580
             1581            1582            1583            1584            1585            1586            1587            1588            1589            1590
             1591            1592            1593            1594            1595            1596            1597            1598            1599            1600
             1601            1602            1603            1604            1605            1606            1607            1608            1609            1610
             1611            1612            1613            1614            1615            1616            1617            1618            1619            1620
             1621            1622            1623            1624            1625            1626            1627            1628            1629            1630
             1631            1632            1633            1634            1635            1636            1637            1638            1639            1640
             1641            1642            1643            1644            1645            1646            1647            1648            1649            1650
             1651            1652            1653            1654            1655            1656            1657            1658            1659            1660
             1661            1662            1663            1664            1665            1666            1667            1668            1669            1670
             1671            1672            1673            1674            1675            1676            1677            1678            1679            1680
             1681            1682            1683            1684            1685            1686            1687            1688            1689            1690
             1691            1692            1693            1694            1695            1696            1697            1698            1699            1700
             1701            1702            1703            1704            1705            1706            1707            1708            1709            1710
             1711            1712            1713            1714            1715            1716            1717            1718            1719            1720
             1721            1722            1723            1724            1725            1726            1727            1728            1729            1730
             1731            1732            1733            1734            1735            1736            1737            1738            1739            1740
             1741            1742            1743            1744            1745            1746            1747            1748            1749            1750
             1751            1752            1753            1754            1755            1756            1757            1758            1759            1760
             1761            1762            1763            1764            1765            1766            1767            1768            1769            1770
             1771            1772            1773            1774            1775            1776            1777            1778            1779            1780
             1781            1782            1783            1784            1785            1786            1787            1788            1789            1790
             1791            1792            1793            1794            1795            1796            1797            1798            1799            1800
             1801            1802            1803            1804            1805            1806            1807            1808            1809            1810
             1811            1812            1813            1814            1815            1816            1817            1818            1819            1820
             1821            1822            1823            1824            1825            1826            1827            1828            1829            1830
             1831            1832            1833            1834            1835            1836            1837            1838            1839            1840
             1841            1842            1843            1844            1845            1846            1847            1848            1849            1850
             1851            1852            1853            1854            1855            1856            1857            1858            1859            1860
             1861            1862            1863            1864            1865            1866            1867            1868            1869            1870
             1871            1872            1873            1874            1875            1876            1877            1878            1879            1880
             1881            1882            1883            1884            1885            1886            1887            1888            1889            1890
             1891            1892            1893            1894            1895            1896            1897            1898            1899            1900
             1901            1902            1903            1904            1905            1906            1907            1908            1909            1910
             1911            1912            1913            1914            1915            1916            1917            1918            1919            1920
             1921            1922            1923            1924            1925            1926            1927            1928            1929            1930
             1931            1932            1933            1934            1935            1936            1937            1938            1939            1940
             1941            1942            1943            1944            1945            1946            1947            1948            1949            1950
             1951            1952            1953            1954            1955            1956            1957            1958            1959            1960
             1961            1962            1963            1964            1965            1966            1967            1968            1969            1970
             1971            1972            1973            1974            1975            1976            1977            1978            1979            1980
             1981            1982            1983            1984            1985            1986            1987            1988            1989            1990
             1991            1992            1993            1994            1995            1996            1997            1998            1999            2000
             2001            2002            2003            2004            2005            2006            2007            2008            2009            2010
             2011            2012            2013            2014            2015            2016            2017            2018            2019            2020
             2021            2022            2023            2024            2025            2026            2027            2028            2029            2030
             2031            2032            2033            2034            2035            2036            2037            2038            2039            2040
             2041            2042            2043            2044            2045            2046            2047            2048            2049            2050
             2051            2052            2053            2054            2055            2056            2057            2058            2059            2060
             2061            2062            2063            2064            2065            2066            2067            2068            2069            2070
             2071            2072            2073            2074            2075            2076            2077            2078            2079            2080
             2081            2082            2083            2084            2085            2086            2087            2088            2089            2090
             2091            2092            2093            2094            2095            2096            2097            2098            2099            2100
             2101            2102            2103            2104            2105            2106            2107            2108            2109            2110
             2111            2112            2113            2114            2115            2116            2117            2118            2119            2120
             2121            2122            2123            2124            2125            2126            2127            2128            2129            2130
             2131            2132            2133            2134            2135            2136            2137            2138            2139            2140
             2141            2142            2143            2144            2145            2146            2147            2148            2149            2150
             2151            2152            2153            2154            2155            2156            2157            2158            2159            2160
             2161            2162            2163            2164            2165            2166            2167            2168            2169            2170
             2171            2172            2173            2174            2175            2176            2177            2178            2179            2180
             2181            2182            2183            2184            2185            2186            2187            2188            2189            2190
             2191            2192            2193            2194            2195            2196            2197            2198            2199            2200
             2201            2202            2203            2204            2205            2206            2207            2208            2209            2210
             2211            2212            2213            2214            2215            2216            2217            2218            2219            2220
             2221            2222            2223            2224            2225            2226            2227            2228            2229            2230
             2231            2232            2233            2234            2235            2236            2237            2238            2239            2240
             2241            2242            2243            2244            2245            2246            2247            2248            2249            2250
             2251            2252            2253            2254            2255            2256            2257            2258            2259            2260
             2261            2262            2263            2264            2265            2266            2267            2268            2269            2270
             2271            2272            2273            2274            2275            2276            2277            2278            2279            2280
             2281            2282            2283            2284            2285            2286            2287            2288            2289            2290
             2291            2292            2293            2294            2295            2296            2297            2298            2299            2300
             2301            2302            2303            2304            2305            2306            2307            2308            2309            2310
             2311            2312            2313            2314            2315            2316            2317            2318            2319            2320
             2321            2322            2323            2324            2325            2326            2327            2328            2329            2330
             2331            2332            2333            2334            2335            2336            2337            2338            2339            2340
             2341            2342            2343            2344            2345            2346            2347            2348            2349            2350
             2351            2352            2353            2354            2355            2356            2357            2358            2359            2360
             2361            2362            2363            2364            2365            2366            2367            2368            2369            2370
             2371            2372            2373            2374            2375            2376            2377            2378            2379            2380
             2381            2382            2383            2384            2385            2386            2387            2388            2389            2390
             2391            2392            2393            2394            2395            2396            2397            2398            2399            2400
             2401            2402            2403            2404            2405            2406            2407            2408            2409            2410
             2411            2412            2413            2414            2415            2416            2417            2418            2419            2420
             2421            2422            2423            2424            2425            2426            2427            2428            2429            2430
             2431            2432            2433            2434            2435            2436            2437            2438            2439            2440
             2441            2442            2443            2444            2445            2446            2447            2448            2449            2450
             2451            2452            2453            2454            2455            2456            2457            2458            2459            2460
             2461            2462            2463            2464            2465            2466            2467            2468            2469            2470
             2471            2472            2473            2474            2475            2476            2477            2478            2479            2480
             2481            2482            2483            2484            2485            2486            2487            2488            2489            2490
             2491            2492            2493            2494            2495            2496            2497            2498            2499            2500
             2501            2502            2503            2504            2505            2506            2507            2508            2509            2510
             2511            2512            2513            2514            2515            2516            2517            2518            2519            2520
             2521            2522            2523            2524            2525            2526            2527            2528            2529            2530
             2531            2532            2533            2534            2535            2536            2537            2538            2539            2540
             2541            2542            2543            2544            2545            2546            2547            2548            2549            2550
             2551            2552            2553            2554            2555            2556            2557            2558            2559            2560
             2561            2562            2563            2564            2565            2566            2567            2568            2569            2570
             2571            2572            2573            2574            2575            2576            2577            2578            2579            2580
             2581            2582            2583            2584            2585            2586            2587            2588            2589            2590
             2591            2592            2593            2594            2595            2596            2597            2598            2599            2600
             2601            2602            2603            2604            2605            2606            2607            2608            2609            2610
             2611            2612            2613            2614            2615            2616            2617            2618            2619            2620
             2621            2622            2623            2624            2625            2626            2627            2628            2629            2630
             2631            2632            2633            2634            2635            2636            2637            2638            2639            2640
             2641            2642            2643            2644            2645            2646            2647            2648            2649            2650
             2651            2652            2653            2654            2655            2656            2657            2658            2659            2660
             2661            2662            2663            2664            2665            2666            2667            2668            2669            2670
             2671            2672            2673            2674            2675            2676            2677            2678            2679            2680
             2681            2682            2683            2684            2685            2686            2687            2688            2689            2690
             2691            2692            2693            2694            2695            2696            2697            2698            2699            2700
             2701            2702            2703            2704            2705            2706            2707            2708            2709            2710
             2711            2712            2713            2714            2715            2716            2717            2718            2719            2720
             2721            2722            2723            2724            2725            2726            2727            2728            2729            2730
             2731            2732            2733            2734            2735            2736            2737            2738            2739            2740
             2741            2742            2743            2744            2745            2746            2747            2748            2749            2750
             2751            2752            2753            2754            2755            2756            2757            2758            2759            2760
             2761            2762            2763            2764            2765            2766            2767            2768            2769            2770
             2771            2772            2773            2774            2775            2776            2777            2778            2779            2780
             2781            2782            2783            2784            2785            2786            2787            2788            2789            2790
             2791            2792            2793            2794            2795            2796            2797            2798            2799            2800
             2801            2802            2803            2804            2805            2806            2807            2808            2809            2810
             2811            2812            2813            2814            2815            2816            2817            2818            2819            2820
             2821            2822            2823            2824            2825            2826            2827            2828            2829            2830
             2831            2832            2833            2834            2835            2836            2837            2838            2839            2840
             2841            2842            2843            2844            2845            2846            2847            2848            2849            2850
             2851            2852            2853            2854            2855            2856            2857            2858            2859            2860
             2861            2862            2863            2864            2865            2866            2867            2868            2869            2870
             2871            2872            2873            2874            2875            2876            2877            2878            2879            2880
             2881            2882            2883            2884            2885            2886            2887            2888            2889            2890
             2891            2892            2893            2894            2895            2896            2897            2898            2899            2900
             2901            2902            2903            2904            2905            2906            2907            2908            2909            2910
             2911            2912            2913            2914            2915            2916            2917            2918            2919            2920
             2921            2922            2923            2924            2925            2926            2927            2928            2929            2930
             2931            2932            2933            2934            2935            2936            2937            2938            2939            2940
             2941            2942            2943            2944            2945            2946            2947            2948            2949            2950
             2951            2952            2953            2954            2955            2956            2957            2958            2959            2960
             2961            2962            2963            2964            2965            2966            2967            2968            2969            2970
             2971            2972            2973            2974            2975            2976            2977            2978            2979            2980
             2981            2982            2983            2984            2985            2986            2987            2988            2989            2990
             2991            2992            2993            2994            2995            2996            2997            2998            2999            3000
             3001            3002            3003            3004            3005            3006            3007            3008            3009            3010
             3011            3012            3013            3014            3015            3016            3017            3018            3019            3020
             3021            3022            3023            3024            3025            3026            3027            3028            3029            3030
             3031            3032            3033            3034            3035            3036            3037            3038            3039            3040
             3041            3042            3043            3044            3045            3046            3047            3048            3049            3050
             3051            3052            3053            3054            3055            3056            3057            3058            3059            3060
             3061            3062            3063            3064            3065            3066            3067            3068            3069            3070
             3071            3072            3073            3074            3075            3076            3077            3078            3079            3080
             3081            3082            3083            3084            3085            3086            3087            3088            3089            3090
             3091            3092            3093            3094            3095            3096            3097            3098            3099            3100
             3101            3102            3103            3104            3105            3106            3107            3108            3109            3110
             3111            3112            3113            3114            3115            3116            3117            3118            3119            3120
             3121            3122            3123            3124            3125            3126            3127            3128            3129            3130
             3131            3132            3133            3134            3135
 ................................................................................................................................................................
   1      133.731         133.719         133.684         133.611         133.568         133.560         133.439         133.417         133.537         133.626    
          133.705         133.775         133.839         133.900         133.958         134.014         134.068         134.122         134.173         134.222    
          134.270         134.314         134.349         133.628         133.653         133.646         133.614         133.550         133.452         133.373    
          133.470         133.421         133.367         133.426         133.369         133.353         133.498         133.595         133.676         133.749    
          133.818         133.884         133.949         134.012         134.073         134.131         134.188         134.244         134.302         134.369    
          134.477         133.596         133.606         133.614         133.607         133.583         133.540         133.480         133.422         133.398    
          133.451         133.436         133.403         133.452         133.423         133.408         133.504         133.540         133.455         133.505    
          133.589         133.670         133.747         133.822         133.895         133.964         134.031         134.096         134.159         134.221    
          134.287         134.359         134.445         134.539         133.580         133.586         133.591         133.593         133.586         133.570    
          133.543         133.510         133.479         133.451         133.410         133.457         133.431         133.411         133.506         133.541    
          133.458         133.507         133.592         133.678         133.763         133.845         133.923         133.995         134.064         134.131    
          134.198         134.267         134.341         134.421         134.506         134.596         133.568         133.572         133.577         133.580    
          133.581         133.576         133.566         133.550         133.530         133.509         133.487         133.458         133.411         133.460    
          133.436         133.413         133.510         133.548         133.462         133.514         133.605         133.704         133.799         133.885    
          133.962         134.034         134.104         134.173         134.245         134.321         134.400         134.482         134.569         134.659    
          133.555         133.560         133.565         133.570         133.573         133.574         133.572         133.567         133.558         133.546    
          133.533         133.519         133.499         133.469         133.416         133.465         133.446         133.420         133.516         133.563    
          133.453         133.523         133.641         133.759         133.855         133.934         134.006         134.076         134.147         134.221    
          134.298         134.379         134.463         134.550         134.640         134.735         133.539         133.545         133.552         133.559    
          133.564         133.569         133.572         133.572         133.570         133.567         133.561         133.555         133.547         133.536    
          133.520         133.492         133.433         133.467         133.478         133.450         133.553         133.626         133.500         133.611    
          133.736         133.837         133.912         133.980         134.047         134.118         134.193         134.273         134.357         134.444    
          134.535         134.630         134.729         134.833         133.512         133.526         133.536         133.546         133.554         133.560    
          133.566         133.571         133.574         133.575         133.576         133.575         133.574         133.573         133.570         133.567    
          133.562         133.555         133.504         133.613         133.605         133.668         133.728         133.780         133.782         133.818    
          133.843         133.896         133.951         134.013         134.082         134.160         134.244         134.333         134.425         134.521    
          134.623         134.732         134.851         134.985         133.472         133.498         133.516         133.529         133.540         133.549    
          133.558         133.565         133.571         133.577         133.581         133.585         133.588         133.592         133.596         133.602    
          133.609         133.620         133.643         133.698         133.771         133.811         133.768         133.800         133.844         133.857    
          133.831         133.848         133.873         133.888         133.866         133.876         133.913         133.934         133.891         133.918    
          133.969         134.035         134.118         134.210         134.306         134.403         134.505         134.612         134.731         134.870    
          135.057         135.381         135.582         135.730         135.842         135.932         136.009         136.077         136.138         136.194    
          136.245         136.294         136.345         136.395         136.444         136.491         136.541         136.598         136.653         136.703    
          136.683       -1.000000E+30   -1.000000E+30   -1.000000E+30   -1.000000E+30   -1.000000E+30   -1.000000E+30   -1.000000E+30   -1.000000E+30   -1.000000E+30
        -1.000000E+30   -1.000000E+30   -1.000000E+30   -1.000000E+30   -1.000000E+30   -1.000000E+30   -1.000000E+30     133.468         133.491         133.509    
          133.523         133.536         133.547         133.556         133.565         133.573         133.580         133.587         133.594         133.601    
          133.609         133.617         133.628         133.642         133.661         133.690         133.733         133.786         133.833         133.867    
          133.884         133.892         133.886         133.892         133.916         133.937         133.895         133.902         133.966         133.996    
          133.917         133.952         134.063         134.171         134.274         134.377         134.483         134.594         134.715         134.851    
          135.017         135.218         135.388         135.528         135.643         135.736         135.815         135.883         135.942         135.996    
          136.043         136.084         136.123         136.158         136.187         136.209         136.221         136.215         136.177       -1.000000E+30
        -1.000000E+30   -1.000000E+30   -1.000000E+30   -1.000000E+30   -1.000000E+30   -1.000000E+30   -1.000000E+30   -1.000000E+30   -1.000000E+30   -1.000000E+30
        -1.000000E+30   -1.000000E+30   -1.000000E+30   -1.000000E+30   -1.000000E+30   -1.000000E+30   -1.000000E+30   -1.000000E+30     133.465         133.486    
          133.504         133.519         133.533         133.545         133.556         133.566         133.575         133.584         133.594         133.603    
          133.612         133.623         133.635         133.649         133.667         133.690         133.718         133.755         133.795         133.834    
          133.868         133.894         133.914         133.921         133.920         133.925         133.918         134.010         134.131         134.241    
          134.348         134.455         134.567         134.686         134.814         134.956         135.110         135.251         135.379         135.488    
          135.581         135.660         135.727         135.785         135.836         135.881         135.920         135.952         135.980         136.001    
          136.014         136.014         135.994       -1.000000E+30   -1.000000E+30   -1.000000E+30   -1.000000E+30   -1.000000E+30   -1.000000E+30   -1.000000E+30
        -1.000000E+30   -1.000000E+30   -1.000000E+30   -1.000000E+30   -1.000000E+30   -1.000000E+30   -1.000000E+30   -1.000000E+30   -1.000000E+30   -1.000000E+30
        -1.000000E+30   -1.000000E+30   -1.000000E+30   -1.000000E+30     133.462         133.483         133.501         133.517         133.531         133.544    
          133.555         133.567         133.578         133.589         133.599         133.611         133.622         133.635         133.650         133.667    
          133.687         133.710         133.738         133.770         133.806         133.841         133.874         133.904         133.930         133.939    
          133.941         133.953         133.963         133.940         133.974         133.982         134.017         134.096         134.208         134.315    
          134.423         134.534         134.649         134.768         134.895         135.024         135.147         135.261         135.365         135.454    
          135.531         135.597         135.654         135.703         135.747         135.784         135.814         135.838         135.856         135.866    
          135.867         135.852       -1.000000E+30   -1.000000E+30   -1.000000E+30   -1.000000E+30   -1.000000E+30   -1.000000E+30   -1.000000E+30   -1.000000E+30
        -1.000000E+30   -1.000000E+30   -1.000000E+30   -1.000000E+30   -1.000000E+30   -1.000000E+30   -1.000000E+30   -1.000000E+30   -1.000000E+30   -1.000000E+30
        -1.000000E+30   -1.000000E+30   -1.000000E+30   -1.000000E+30     133.460         133.481         133.499         133.515         133.530         133.543    
          133.556         133.568         133.580         133.593         133.605         133.618         133.631         133.646         133.662         133.681    
          133.701         133.725         133.752         133.783         133.815         133.848         133.882         133.914         133.946         133.979    
          134.003         134.028         134.014         134.033         134.055         134.098         134.054         134.086         134.175         134.279    
          134.385         134.495         134.607         134.721         134.837         134.953         135.062         135.166         135.263         135.347    
          135.422         135.486         135.541         135.589         135.630         135.666         135.694         135.717         135.733         135.743    
          135.746         135.731       -1.000000E+30   -1.000000E+30   -1.000000E+30   -1.000000E+30   -1.000000E+30   -1.000000E+30   -1.000000E+30   -1.000000E+30
        -1.000000E+30   -1.000000E+30   -1.000000E+30   -1.000000E+30   -1.000000E+30   -1.000000E+30   -1.000000E+30   -1.000000E+30   -1.000000E+30   -1.000000E+30
        -1.000000E+30   -1.000000E+30   -1.000000E+30   -1.000000E+30   -1.000000E+30     133.459         133.480         133.498         133.514         133.529    
          133.543         133.557         133.570         133.583         133.596         133.610         133.624         133.639         133.655         133.672    
          133.692         133.713         133.737         133.764         133.793         133.824         133.856         133.889         133.923         133.958    
          133.995         134.036         134.067         134.094         134.072         134.092         134.132         134.169         134.113         134.155    
          134.237         134.342         134.451         134.562         134.673         134.782         134.890         134.991         135.087         135.176    
          135.256         135.326         135.388         135.441         135.487         135.527         135.561         135.589         135.611         135.626    
          135.636         135.640         135.637       -1.000000E+30   -1.000000E+30   -1.000000E+30   -1.000000E+30   -1.000000E+30   -1.000000E+30   -1.000000E+30
        -1.000000E+30   -1.000000E+30   -1.000000E+30   -1.000000E+30   -1.000000E+30   -1.000000E+30   -1.000000E+30   -1.000000E+30   -1.000000E+30   -1.000000E+30
        -1.000000E+30   -1.000000E+30   -1.000000E+30   -1.000000E+30   -1.000000E+30   -1.000000E+30   -1.000000E+30     133.458         133.479         133.497    
          133.514         133.529         133.544         133.558         133.572         133.586         133.600         133.614         133.629         133.645    
          133.662         133.680         133.700         133.722         133.746         133.772         133.801         133.831         133.862         133.896    
          133.930         133.966         134.004         134.043         134.084         134.111         134.125         134.111         134.122         134.176    
          134.217         134.142         134.194         134.289         134.402         134.516         134.626         134.731         134.834         134.929    
          135.019         135.101         135.176         135.244         135.303         135.354         135.398         135.437         135.469         135.496    
          135.518         135.534         135.544         135.549         135.551       -1.000000E+30   -1.000000E+30   -1.000000E+30   -1.000000E+30   -1.000000E+30
        -1.000000E+30   -1.000000E+30   -1.000000E+30   -1.000000E+30   -1.000000E+30   -1.000000E+30   -1.000000E+30   -1.000000E+30   -1.000000E+30   -1.000000E+30
        -1.000000E+30   -1.000000E+30   -1.000000E+30   -1.000000E+30   -1.000000E+30   -1.000000E+30   -1.000000E+30   -1.000000E+30   -1.000000E+30   -1.000000E+30
          133.458         133.479         133.497         133.514         133.529         133.544         133.559         133.573         133.588         133.603    
          133.618         133.634         133.650         133.668         133.687         133.708         133.730         133.754         133.779         133.807    
          133.837         133.868         133.901         133.936         133.972         134.009         134.048         134.085         134.118         134.132    
          134.155         134.135         134.138         134.215         134.262         134.172         134.232         134.345         134.468         134.581    
          134.686         134.784         134.876         134.960         135.038         135.108         135.172         135.229         135.278         135.320    
          135.357         135.389         135.415         135.437         135.454         135.466         135.473         135.476         135.486       -1.000000E+30
        -1.000000E+30   -1.000000E+30   -1.000000E+30   -1.000000E+30   -1.000000E+30   -1.000000E+30   -1.000000E+30   -1.000000E+30   -1.000000E+30   -1.000000E+30
        -1.000000E+30   -1.000000E+30   -1.000000E+30   -1.000000E+30   -1.000000E+30   -1.000000E+30   -1.000000E+30   -1.000000E+30   -1.000000E+30   -1.000000E+30
        -1.000000E+30   -1.000000E+30   -1.000000E+30     133.457         133.478         133.497         133.514         133.529         133.545         133.560    
          133.575         133.590         133.605         133.621         133.638         133.655         133.673         133.692         133.713         133.735    
          133.759         133.785         133.812         133.842         133.872         133.905         133.940         133.976         134.013         134.051    
          134.089         134.123         134.148         134.147         134.182         134.164         134.165         134.269         134.330         134.240    
          134.314         134.424         134.541         134.645         134.740         134.828         134.910         134.984         135.050         135.110    
          135.164         135.211         135.252         135.287         135.318         135.344         135.366         135.384         135.398         135.407    
          135.413         135.418       -1.000000E+30   -1.000000E+30   -1.000000E+30   -1.000000E+30   -1.000000E+30   -1.000000E+30   -1.000000E+30   -1.000000E+30
        -1.000000E+30   -1.000000E+30   -1.000000E+30   -1.000000E+30   -1.000000E+30   -1.000000E+30   -1.000000E+30   -1.000000E+30   -1.000000E+30   -1.000000E+30
        -1.000000E+30   -1.000000E+30   -1.000000E+30   -1.000000E+30   -1.000000E+30   -1.000000E+30     133.457         133.479         133.497         133.514    
          133.530         133.545         133.560         133.576         133.591         133.607         133.624         133.640         133.658         133.677    
          133.696         133.717         133.740         133.764         133.789         133.816         133.845         133.876         133.909         133.943    
          133.979         134.017         134.055         134.094         134.131         134.165         134.195         134.224         134.295         134.218    
          134.280         134.389         134.507         134.611         134.703         134.788         134.866         134.937         134.999         135.056    
          135.106         135.152         135.191         135.225         135.255         135.281         135.304         135.322         135.337         135.349    
          135.357         135.364         135.370       -1.000000E+30   -1.000000E+30   -1.000000E+30   -1.000000E+30   -1.000000E+30   -1.000000E+30   -1.000000E+30
        -1.000000E+30   -1.000000E+30   -1.000000E+30   -1.000000E+30   -1.000000E+30   -1.000000E+30   -1.000000E+30   -1.000000E+30   -1.000000E+30   -1.000000E+30
        -1.000000E+30   -1.000000E+30   -1.000000E+30   -1.000000E+30   -1.000000E+30   -1.000000E+30     133.458         133.479         133.497         133.514    
          133.530         133.545         133.561         133.576         133.592         133.609         133.625         133.643         133.661         133.680    
          133.700         133.721         133.743         133.767         133.792         133.819         133.848         133.879         133.911         133.945    
          133.981         134.019         134.058         134.098         134.139         134.178         134.215         134.225         134.247         134.239    
          134.241         134.360         134.482         134.583         134.673         134.754         134.829         134.896         134.956         135.009    
          135.056         135.099         135.138         135.171         135.200         135.226         135.249         135.269         135.285         135.299    
          135.310         135.318         135.328         135.335       -1.000000E+30   -1.000000E+30   -1.000000E+30   -1.000000E+30   -1.000000E+30   -1.000000E+30
        -1.000000E+30   -1.000000E+30   -1.000000E+30   -1.000000E+30   -1.000000E+30   -1.000000E+30   -1.000000E+30   -1.000000E+30   -1.000000E+30   -1.000000E+30
        -1.000000E+30   -1.000000E+30   -1.000000E+30   -1.000000E+30   -1.000000E+30   -1.000000E+30     133.458         133.480         133.498         133.514    
          133.529         133.545         133.561         133.577         133.593         133.609         133.626         133.644         133.662         133.682    
          133.702         133.723         133.745         133.769         133.795         133.822         133.850         133.881         133.913         133.947    
          133.983         134.021         134.061         134.102         134.146         134.191         134.236         134.263         134.283         134.281    
          134.306         134.319         134.381         134.346         134.394         134.469         134.564         134.650         134.727         134.798    
          134.862         134.919         134.970         135.015         135.056         135.092         135.125         135.154         135.180         135.204    
          135.224         135.242         135.257         135.270         135.279         135.287         135.295         135.303       -1.000000E+30   -1.000000E+30
        -1.000000E+30   -1.000000E+30   -1.000000E+30   -1.000000E+30   -1.000000E+30   -1.000000E+30   -1.000000E+30   -1.000000E+30   -1.000000E+30   -1.000000E+30
        -1.000000E+30   -1.000000E+30   -1.000000E+30   -1.000000E+30   -1.000000E+30   -1.000000E+30   -1.000000E+30   -1.000000E+30   -1.000000E+30     133.460    
          133.483         133.498         133.513         133.528         133.544         133.560         133.576         133.592         133.609         133.627    
          133.645         133.663         133.683         133.703         133.724         133.747         133.771         133.796         133.823         133.852    
          133.882         133.914         133.948         133.984         134.022         134.062         134.105         134.151         134.200         134.253    
          134.313         134.362         134.403         134.369         134.408         134.468         134.551         134.630         134.704         134.772    
          134.833         134.888         134.937         134.980         135.019         135.054         135.085         135.114         135.141         135.164    
          135.186         135.204         135.221         135.234         135.246         135.254         135.263         135.270         135.276         135.289    
        -1.000000E+30   -1.000000E+30   -1.000000E+30   -1.000000E+30   -1.000000E+30   -1.000000E+30   -1.000000E+30   -1.000000E+30   -1.000000E+30   -1.000000E+30
        -1.000000E+30   -1.000000E+30   -1.000000E+30   -1.000000E+30   -1.000000E+30   -1.000000E+30   -1.000000E+30   -1.000000E+30   -1.000000E+30     133.491    
          133.498         133.511         133.526         133.542         133.558         133.575         133.591         133.609         133.626         133.644    
          133.663         133.683         133.703         133.725         133.748         133.772         133.797         133.824         133.852         133.882    
          133.914         133.948         133.983         134.021         134.062         134.106         134.153         134.204         134.261         134.323    
          134.373         134.409         134.373         134.409         134.464         134.539         134.613         134.684         134.749         134.808    
          134.860         134.908         134.950         134.988         135.021         135.051         135.080         135.106         135.130         135.151    
          135.171         135.188         135.203         135.216         135.228         135.238         135.246         135.252         135.257         135.270    
        -1.000000E+30   -1.000000E+30   -1.000000E+30   -1.000000E+30   -1.000000E+30   -1.000000E+30   -1.000000E+30   -1.000000E+30   -1.000000E+30   -1.000000E+30
        -1.000000E+30   -1.000000E+30   -1.000000E+30   -1.000000E+30   -1.000000E+30   -1.000000E+30   -1.000000E+30   -1.000000E+30     133.489         133.506    
          133.522         133.538         133.555         133.572         133.589         133.607         133.625         133.643         133.663         133.682    
          133.703         133.725         133.748         133.772         133.797         133.824         133.852         133.882         133.914         133.947    
          133.982         134.020         134.061         134.105         134.152         134.204         134.262         134.311         134.337         134.308    
          134.337         134.372         134.406         134.370         134.404         134.457         134.528         134.597         134.664         134.728    
          134.785         134.836         134.882         134.923         134.960         134.992         135.006         134.980         134.994         135.023    
          135.034         135.009         135.023         135.049         135.075         135.099         135.120         135.141         135.159         135.176    
          135.190         135.204         135.216         135.226         135.234         135.241         135.246       -1.000000E+30   -1.000000E+30   -1.000000E+30
        -1.000000E+30   -1.000000E+30   -1.000000E+30   -1.000000E+30   -1.000000E+30   -1.000000E+30   -1.000000E+30   -1.000000E+30   -1.000000E+30   -1.000000E+30
        -1.000000E+30   -1.000000E+30   -1.000000E+30   -1.000000E+30   -1.000000E+30     133.498         133.516         133.534         133.551         133.569    
          133.587         133.605         133.623         133.642         133.661         133.681         133.702         133.724         133.747         133.771    
          133.797         133.823         133.851         133.881         133.912         133.945         133.980         134.018         134.058         134.102    
          134.149         134.201         134.258         134.305         134.335         134.304         134.330         134.368         134.400         134.365    
          134.394         134.436         134.465         134.429         134.463         134.516         134.582         134.646         134.708         134.764    
          134.814         134.859         134.900         134.934         134.949         134.923         134.938         134.966         134.982         134.955    
          134.970         134.996         135.010         134.984         134.998         135.024         135.034         135.011         135.024         135.048    
          135.072         135.093         135.113         135.132         135.150         135.166         135.181         135.195         135.207         135.217    
          135.226         135.233         135.239       -1.000000E+30   -1.000000E+30   -1.000000E+30   -1.000000E+30   -1.000000E+30   -1.000000E+30   -1.000000E+30
        -1.000000E+30   -1.000000E+30   -1.000000E+30   -1.000000E+30   -1.000000E+30   -1.000000E+30   -1.000000E+30   -1.000000E+30   -1.000000E+30   -1.000000E+30
          133.508         133.527         133.546         133.564         133.583         133.601         133.620         133.639         133.659         133.679    
          133.700         133.723         133.746         133.770         133.795         133.822         133.850         133.879         133.910         133.943    
          133.977         134.014         134.054         134.097         134.144         134.195         134.250         134.309         134.372         134.425    
          134.459         134.422         134.451         134.494         134.520         134.487         134.514         134.557         134.584         134.549    
          134.576         134.620         134.647         134.612         134.638         134.681         134.707         134.673         134.698         134.739    
          134.761         134.730         134.752         134.789         134.810         134.780         134.800         134.835         134.853         134.825    
          134.843         134.875         134.891         134.866         134.882         134.911         134.927         134.902         134.916         134.943    
          134.959         134.933         134.948         134.973         134.987         134.963         134.976         134.999         135.011         134.989    
          135.002         135.025         135.048         135.069         135.089         135.109         135.127         135.144         135.160         135.175    
          135.188         135.199         135.209         135.217       -1.000000E+30   -1.000000E+30   -1.000000E+30   -1.000000E+30   -1.000000E+30   -1.000000E+30
        -1.000000E+30   -1.000000E+30   -1.000000E+30   -1.000000E+30   -1.000000E+30   -1.000000E+30   -1.000000E+30   -1.000000E+30   -1.000000E+30   -1.000000E+30
        -1.000000E+30   -1.000000E+30     133.519         133.539         133.559         133.578         133.597         133.616         133.636         133.656    
          133.677         133.698         133.720         133.744         133.768         133.793         133.820         133.848         133.877         133.907    
          133.939         133.973         134.010         134.049         134.090         134.136         134.185         134.239         134.296         134.359    
          134.425         134.489         134.552         134.613         134.673         134.727         134.776         134.821         134.860         134.895    
          134.923         134.938         134.917         134.929         134.953         134.966         134.944         134.955         134.979         134.991    
          134.969         134.981         135.004         135.013         134.993         135.005         135.026         135.048         135.068         135.087    
          135.106         135.123         135.140         135.157         135.170         135.182         135.192       -1.000000E+30   -1.000000E+30   -1.000000E+30
        -1.000000E+30   -1.000000E+30   -1.000000E+30   -1.000000E+30   -1.000000E+30   -1.000000E+30   -1.000000E+30   -1.000000E+30   -1.000000E+30   -1.000000E+30
        -1.000000E+30   -1.000000E+30   -1.000000E+30   -1.000000E+30   -1.000000E+30   -1.000000E+30     133.530         133.551         133.571         133.591    
          133.611         133.631         133.652         133.673         133.695         133.717         133.741         133.765         133.791         133.817    
          133.845         133.874         133.904         133.935         133.968         134.004         134.042         134.082         134.126         134.174    
          134.226         134.282         134.344         134.409         134.473         134.536         134.597         134.657         134.712         134.760    
          134.804         134.843         134.878         134.909         134.936         134.959         134.972         134.951         134.963         134.984    
          134.994         134.976         134.986         135.007         135.028         135.048         135.067         135.086         135.103         135.119    
          135.137         135.152         135.164       -1.000000E+30   -1.000000E+30   -1.000000E+30   -1.000000E+30   -1.000000E+30   -1.000000E+30   -1.000000E+30
        -1.000000E+30   -1.000000E+30   -1.000000E+30   -1.000000E+30   -1.000000E+30   -1.000000E+30   -1.000000E+30   -1.000000E+30   -1.000000E+30   -1.000000E+30
        -1.000000E+30   -1.000000E+30   -1.000000E+30     133.542         133.563         133.584         133.605         133.626         133.647         133.668    
          133.690         133.713         133.737         133.762         133.787         133.814         133.841         133.870         133.899         133.930    
          133.963         133.997         134.033         134.072         134.115         134.161         134.212         134.267         134.328         134.391    
          134.455         134.519         134.581         134.641         134.697         134.746         134.790         134.829         134.863         134.894    
          134.918         134.929         134.911         134.922         134.942         134.954         134.934         134.947         134.968         134.989    
          135.010         135.030         135.049         135.067         135.084         135.100         135.117         135.132       -1.000000E+30   -1.000000E+30
        -1.000000E+30   -1.000000E+30   -1.000000E+30   -1.000000E+30   -1.000000E+30   -1.000000E+30   -1.000000E+30   -1.000000E+30   -1.000000E+30   -1.000000E+30
        -1.000000E+30   -1.000000E+30   -1.000000E+30   -1.000000E+30   -1.000000E+30   -1.000000E+30   -1.000000E+30   -1.000000E+30   -1.000000E+30     133.553    
          133.576         133.597         133.619         133.641         133.663         133.685         133.708         133.732         133.757         133.783    
          133.809         133.836         133.865         133.894         133.924         133.956         133.989         134.024         134.062         134.103    
          134.148         134.197         134.250         134.309         134.372         134.436         134.501         134.564         134.625         134.682    
          134.732         134.776         134.815         134.849         134.879         134.902         134.915         134.897         134.907         134.927    
          134.938         134.919         134.931         134.952         134.973         134.993         135.012         135.030         135.048         135.066    
          135.081         135.097         135.114       -1.000000E+30   -1.000000E+30   -1.000000E+30   -1.000000E+30   -1.000000E+30   -1.000000E+30   -1.000000E+30
        -1.000000E+30   -1.000000E+30   -1.000000E+30   -1.000000E+30   -1.000000E+30   -1.000000E+30   -1.000000E+30   -1.000000E+30   -1.000000E+30   -1.000000E+30
        -1.000000E+30   -1.000000E+30   -1.000000E+30   -1.000000E+30     133.564         133.588         133.611         133.634         133.656         133.679    
          133.703         133.727         133.752         133.777         133.804         133.831         133.859         133.888         133.917         133.948    
          133.980         134.015         134.052         134.091         134.134         134.181         134.232         134.290         134.352         134.416    
          134.481         134.546         134.609         134.668         134.719         134.764         134.802         134.836         134.865         134.891    
          134.911         134.923         134.906         134.917         134.937         134.957         134.977         134.996         135.014         135.030    
          135.048         135.064         135.078       -1.000000E+30   -1.000000E+30   -1.000000E+30   -1.000000E+30   -1.000000E+30   -1.000000E+30   -1.000000E+30
        -1.000000E+30   -1.000000E+30   -1.000000E+30   -1.000000E+30   -1.000000E+30   -1.000000E+30   -1.000000E+30   -1.000000E+30   -1.000000E+30   -1.000000E+30
        -1.000000E+30   -1.000000E+30   -1.000000E+30   -1.000000E+30   -1.000000E+30     133.576         133.601         133.625         133.648         133.672    
          133.696         133.720         133.745         133.771         133.797         133.824         133.852         133.880         133.909         133.940    
          133.971         134.004         134.040         134.078         134.120         134.165         134.214         134.269         134.330         134.395    
          134.461         134.528         134.592         134.653         134.707         134.753         134.791         134.823         134.852         134.877    
          134.898         134.909         134.891         134.903         134.922         134.943         134.962         134.981         134.998         135.014    
          135.032         135.047         135.062       -1.000000E+30   -1.000000E+30   -1.000000E+30   -1.000000E+30   -1.000000E+30   -1.000000E+30   -1.000000E+30
        -1.000000E+30   -1.000000E+30   -1.000000E+30   -1.000000E+30   -1.000000E+30   -1.000000E+30   -1.000000E+30   -1.000000E+30   -1.000000E+30   -1.000000E+30
        -1.000000E+30   -1.000000E+30   -1.000000E+30   -1.000000E+30   -1.000000E+30     133.587         133.613         133.638         133.663         133.688    
          133.713         133.738         133.764         133.790         133.817         133.844         133.872         133.901         133.931         133.961    
          133.994         134.028         134.065         134.105         134.148         134.196         134.248         134.309         134.373         134.440    
          134.509         134.576         134.639         134.695         134.741         134.778         134.810         134.838         134.863         134.883    
          134.894         134.877         134.888         134.907         134.928         134.948         134.967         134.984         135.000         135.017    
          135.032         135.046         135.060         135.074       -1.000000E+30   -1.000000E+30   -1.000000E+30   -1.000000E+30   -1.000000E+30   -1.000000E+30
        -1.000000E+30   -1.000000E+30   -1.000000E+30   -1.000000E+30   -1.000000E+30   -1.000000E+30   -1.000000E+30   -1.000000E+30   -1.000000E+30   -1.000000E+30
        -1.000000E+30   -1.000000E+30   -1.000000E+30   -1.000000E+30     133.599         133.626         133.652         133.678         133.703         133.729    
          133.755         133.781         133.808         133.836         133.863         133.892         133.921         133.951         133.983         134.016    
          134.052         134.090         134.132         134.178         134.228         134.286         134.351         134.419         134.490         134.560    
          134.625         134.682         134.728         134.766         134.797         134.824         134.849         134.869         134.879         134.862    
          134.873         134.892         134.913         134.934         134.954         134.972         134.989         135.005         135.020         135.033    
          135.047         135.057         135.074       -1.000000E+30   -1.000000E+30   -1.000000E+30   -1.000000E+30   -1.000000E+30   -1.000000E+30   -1.000000E+30
        -1.000000E+30   -1.000000E+30   -1.000000E+30   -1.000000E+30   -1.000000E+30   -1.000000E+30   -1.000000E+30   -1.000000E+30   -1.000000E+30   -1.000000E+30
        -1.000000E+30   -1.000000E+30   -1.000000E+30   -1.000000E+30   -1.000000E+30   -1.000000E+30   -1.000000E+30   -1.000000E+30   -1.000000E+30   -1.000000E+30
        -1.000000E+30   -1.000000E+30   -1.000000E+30   -1.000000E+30   -1.000000E+30   -1.000000E+30   -1.000000E+30   -1.000000E+30   -1.000000E+30   -1.000000E+30
        -1.000000E+30   -1.000000E+30   -1.000000E+30   -1.000000E+30   -1.000000E+30   -1.000000E+30   -1.000000E+30   -1.000000E+30   -1.000000E+30     133.610    
          133.639         133.666         133.692         133.719         133.745         133.772         133.799         133.826         133.854         133.882    
          133.911         133.941         133.971         134.004         134.039         134.076         134.116         134.161         134.209         134.265    
          134.328         134.395         134.467         134.542         134.609         134.670         134.716         134.753         134.784         134.810    
          134.834         134.854         134.864         134.847         134.858         134.877         134.899         134.920         134.941         134.961    
          134.979         134.996         135.011         135.025         135.038         135.049         135.058         135.070       -1.000000E+30   -1.000000E+30
        -1.000000E+30   -1.000000E+30   -1.000000E+30   -1.000000E+30   -1.000000E+30   -1.000000E+30   -1.000000E+30   -1.000000E+30   -1.000000E+30   -1.000000E+30
        -1.000000E+30   -1.000000E+30   -1.000000E+30   -1.000000E+30   -1.000000E+30   -1.000000E+30   -1.000000E+30   -1.000000E+30   -1.000000E+30   -1.000000E+30
        -1.000000E+30   -1.000000E+30   -1.000000E+30   -1.000000E+30   -1.000000E+30   -1.000000E+30   -1.000000E+30   -1.000000E+30   -1.000000E+30   -1.000000E+30
        -1.000000E+30   -1.000000E+30   -1.000000E+30   -1.000000E+30   -1.000000E+30   -1.000000E+30   -1.000000E+30   -1.000000E+30   -1.000000E+30   -1.000000E+30
        -1.000000E+30   -1.000000E+30   -1.000000E+30     133.622         133.651         133.679         133.706         133.734         133.761         133.788    
          133.816         133.844         133.872         133.901         133.930         133.960         133.992         134.025         134.061         134.101    
          134.144         134.190         134.247       -1.000000E+30   -1.000000E+30   -1.000000E+30   -1.000000E+30   -1.000000E+30   -1.000000E+30     134.704    
          134.737         134.768         134.796         134.818         134.827         134.811         134.821         134.839         134.849         134.832    
          134.842         134.862         134.884         134.907         134.928         134.949         134.969         134.987         135.003         135.018    
          135.032         135.043         135.054         135.063         135.068         135.061         135.065         135.076         135.081         135.073    
          135.077       -1.000000E+30   -1.000000E+30   -1.000000E+30   -1.000000E+30   -1.000000E+30   -1.000000E+30   -1.000000E+30   -1.000000E+30   -1.000000E+30
        -1.000000E+30   -1.000000E+30   -1.000000E+30   -1.000000E+30   -1.000000E+30   -1.000000E+30   -1.000000E+30   -1.000000E+30   -1.000000E+30   -1.000000E+30
        -1.000000E+30   -1.000000E+30   -1.000000E+30   -1.000000E+30   -1.000000E+30   -1.000000E+30   -1.000000E+30     133.633         133.663         133.692    
          133.720         133.748         133.776         133.804         133.833         133.861         133.890         133.919         133.949         133.981    
          134.014         134.048         134.085         134.125       -1.000000E+30   -1.000000E+30   -1.000000E+30   -1.000000E+30   -1.000000E+30   -1.000000E+30
        -1.000000E+30     134.619         134.685         134.720         134.751         134.779         134.802         134.813         134.796         134.807    
          134.827         134.849         134.872         134.895         134.918         134.940         134.960         134.978         134.994         135.010    
          135.025         135.038         135.049         135.053         135.046         135.051         135.058         135.062         135.056         135.059    
          135.069       -1.000000E+30   -1.000000E+30   -1.000000E+30   -1.000000E+30   -1.000000E+30   -1.000000E+30   -1.000000E+30   -1.000000E+30   -1.000000E+30
        -1.000000E+30   -1.000000E+30   -1.000000E+30   -1.000000E+30   -1.000000E+30   -1.000000E+30   -1.000000E+30   -1.000000E+30   -1.000000E+30   -1.000000E+30
        -1.000000E+30   -1.000000E+30   -1.000000E+30   -1.000000E+30   -1.000000E+30     133.644         133.675         133.704         133.734         133.763    
          133.792         133.821         133.850         133.879         133.909         133.939         133.971         134.005         134.039         134.075    
          134.117       -1.000000E+30   -1.000000E+30   -1.000000E+30   -1.000000E+30   -1.000000E+30   -1.000000E+30   -1.000000E+30   -1.000000E+30     134.664    
          134.706         134.737         134.765         134.788         134.800         134.782         134.792         134.812         134.821         134.805    
          134.816         134.837         134.861         134.886         134.910         134.932         134.953         134.972         134.989         135.005    
          135.020         135.033         135.043         135.049         135.041         135.047         135.055         135.063       -1.000000E+30   -1.000000E+30
        -1.000000E+30   -1.000000E+30   -1.000000E+30   -1.000000E+30   -1.000000E+30   -1.000000E+30   -1.000000E+30   -1.000000E+30   -1.000000E+30   -1.000000E+30
        -1.000000E+30   -1.000000E+30   -1.000000E+30   -1.000000E+30   -1.000000E+30     133.653         133.685         133.716         133.747         133.777    
          133.807         133.837         133.868         133.898         133.929         133.962         133.996         134.031         134.071       -1.000000E+30
        -1.000000E+30   -1.000000E+30   -1.000000E+30   -1.000000E+30   -1.000000E+30   -1.000000E+30   -1.000000E+30   -1.000000E+30   -1.000000E+30     134.676    
          134.722         134.749         134.776         134.798         134.810         134.792         134.805         134.826         134.851         134.876    
          134.902         134.926         134.947         134.967         134.985         135.001         135.016         135.028         135.033         135.026    
          135.032         135.039         135.045         135.038         135.043         135.051         135.060       -1.000000E+30   -1.000000E+30   -1.000000E+30
        -1.000000E+30   -1.000000E+30   -1.000000E+30   -1.000000E+30   -1.000000E+30   -1.000000E+30   -1.000000E+30   -1.000000E+30   -1.000000E+30   -1.000000E+30
        -1.000000E+30   -1.000000E+30   -1.000000E+30   -1.000000E+30     133.662         133.695         133.728         133.760         133.792         133.824    
          133.855         133.887         133.920         133.953         133.988         134.030       -1.000000E+30   -1.000000E+30   -1.000000E+30   -1.000000E+30
        -1.000000E+30   -1.000000E+30   -1.000000E+30   -1.000000E+30   -1.000000E+30   -1.000000E+30   -1.000000E+30   -1.000000E+30   -1.000000E+30     134.733    
          134.762         134.784         134.797         134.779         134.790         134.812         134.822         134.804         134.818         134.841    
          134.868         134.894         134.919         134.942         134.960         134.967         134.957         134.966         134.978         134.986    
          134.976         134.984         134.995         135.001         134.993         135.000         135.010         135.015         135.008         135.014    
          135.023         135.030         135.022         135.029         135.038         135.048       -1.000000E+30   -1.000000E+30   -1.000000E+30   -1.000000E+30
        -1.000000E+30   -1.000000E+30   -1.000000E+30   -1.000000E+30   -1.000000E+30   -1.000000E+30   -1.000000E+30   -1.000000E+30   -1.000000E+30   -1.000000E+30
        -1.000000E+30   -1.000000E+30   -1.000000E+30   -1.000000E+30     133.668         133.704         133.739         133.774         133.808         133.843    
          133.876         133.911         133.946         133.994       -1.000000E+30   -1.000000E+30   -1.000000E+30   -1.000000E+30   -1.000000E+30   -1.000000E+30
        -1.000000E+30   -1.000000E+30   -1.000000E+30   -1.000000E+30   -1.000000E+30   -1.000000E+30   -1.000000E+30   -1.000000E+30   -1.000000E+30     134.745    
          134.770         134.798         134.812         134.794         134.807         134.827         134.838         134.821         134.835         134.859    
          134.887         134.910         134.920         134.907         134.919         134.934         134.943         134.931         134.942         134.954    
          134.964         134.953         134.963         134.977         134.993       -1.000000E+30   -1.000000E+30   -1.000000E+30   -1.000000E+30   -1.000000E+30
        -1.000000E+30   -1.000000E+30   -1.000000E+30   -1.000000E+30   -1.000000E+30   -1.000000E+30   -1.000000E+30   -1.000000E+30   -1.000000E+30   -1.000000E+30
        -1.000000E+30   -1.000000E+30   -1.000000E+30   -1.000000E+30   -1.000000E+30     133.672         133.712         133.751         133.790         133.828    
          133.866         133.903         133.957       -1.000000E+30   -1.000000E+30   -1.000000E+30   -1.000000E+30   -1.000000E+30   -1.000000E+30   -1.000000E+30
        -1.000000E+30   -1.000000E+30   -1.000000E+30   -1.000000E+30   -1.000000E+30   -1.000000E+30   -1.000000E+30   -1.000000E+30   -1.000000E+30   -1.000000E+30
          134.749         134.780         134.809         134.823         134.803         134.816       -1.000000E+30     134.854       -1.000000E+30     134.849    
          134.876         134.884         134.871         134.880         134.901         134.914         134.898         134.911       -1.000000E+30   -1.000000E+30
        -1.000000E+30   -1.000000E+30   -1.000000E+30   -1.000000E+30   -1.000000E+30   -1.000000E+30   -1.000000E+30   -1.000000E+30   -1.000000E+30   -1.000000E+30
        -1.000000E+30   -1.000000E+30   -1.000000E+30   -1.000000E+30   -1.000000E+30   -1.000000E+30   -1.000000E+30   -1.000000E+30   -1.000000E+30   -1.000000E+30
          133.672         133.719         133.766         133.812         133.856         133.911       -1.000000E+30   -1.000000E+30   -1.000000E+30   -1.000000E+30
        -1.000000E+30   -1.000000E+30   -1.000000E+30   -1.000000E+30   -1.000000E+30   -1.000000E+30   -1.000000E+30   -1.000000E+30   -1.000000E+30   -1.000000E+30
        -1.000000E+30   -1.000000E+30   -1.000000E+30   -1.000000E+30   -1.000000E+30   -1.000000E+30   -1.000000E+30   -1.000000E+30   -1.000000E+30   -1.000000E+30
        -1.000000E+30   -1.000000E+30   -1.000000E+30   -1.000000E+30   -1.000000E+30   -1.000000E+30   -1.000000E+30   -1.000000E+30   -1.000000E+30   -1.000000E+30
        -1.000000E+30   -1.000000E+30   -1.000000E+30   -1.000000E+30   -1.000000E+30   -1.000000E+30   -1.000000E+30   -1.000000E+30   -1.000000E+30   -1.000000E+30
          133.667         133.729         133.791         133.859       -1.000000E+30   -1.000000E+30   -1.000000E+30   -1.000000E+30   -1.000000E+30   -1.000000E+30
        -1.000000E+30   -1.000000E+30   -1.000000E+30   -1.000000E+30   -1.000000E+30   -1.000000E+30   -1.000000E+30   -1.000000E+30   -1.000000E+30   -1.000000E+30
        -1.000000E+30   -1.000000E+30   -1.000000E+30   -1.000000E+30   -1.000000E+30   -1.000000E+30   -1.000000E+30   -1.000000E+30   -1.000000E+30   -1.000000E+30
        -1.000000E+30   -1.000000E+30   -1.000000E+30   -1.000000E+30   -1.000000E+30   -1.000000E+30   -1.000000E+30   -1.000000E+30   -1.000000E+30   -1.000000E+30
        -1.000000E+30   -1.000000E+30   -1.000000E+30   -1.000000E+30   -1.000000E+30   -1.000000E+30   -1.000000E+30     133.652         133.768         133.877    
        -1.000000E+30   -1.000000E+30   -1.000000E+30   -1.000000E+30   -1.000000E+30   -1.000000E+30   -1.000000E+30   -1.000000E+30   -1.000000E+30   -1.000000E+30
        -1.000000E+30   -1.000000E+30   -1.000000E+30   -1.000000E+30   -1.000000E+30   -1.000000E+30   -1.000000E+30   -1.000000E+30   -1.000000E+30   -1.000000E+30
        -1.000000E+30   -1.000000E+30   -1.000000E+30   -1.000000E+30   -1.000000E+30   -1.000000E+30   -1.000000E+30   -1.000000E+30   -1.000000E+30   -1.000000E+30
        -1.000000E+30   -1.000000E+30   -1.000000E+30   -1.000000E+30   -1.000000E+30   -1.000000E+30   -1.000000E+30   -1.000000E+30   -1.000000E+30   -1.000000E+30
          133.692       -1.000000E+30   -1.000000E+30   -1.000000E+30   -1.000000E+30   -1.000000E+30   -1.000000E+30   -1.000000E+30   -1.000000E+30   -1.000000E+30
        -1.000000E+30   -1.000000E+30   -1.000000E+30   -1.000000E+30   -1.000000E+30   -1.000000E+30   -1.000000E+30   -1.000000E+30   -1.000000E+30   -1.000000E+30
        -1.000000E+30   -1.000000E+30   -1.000000E+30   -1.000000E+30   -1.000000E+30   -1.000000E+30   -1.000000E+30   -1.000000E+30   -1.000000E+30   -1.000000E+30
        -1.000000E+30   -1.000000E+30   -1.000000E+30   -1.000000E+30   -1.000000E+30   -1.000000E+30   -1.000000E+30   -1.000000E+30   -1.000000E+30   -1.000000E+30
        -1.000000E+30   -1.000000E+30   -1.000000E+30   -1.000000E+30   -1.000000E+30   -1.000000E+30   -1.000000E+30   -1.000000E+30   -1.000000E+30   -1.000000E+30
        -1.000000E+30   -1.000000E+30   -1.000000E+30   -1.000000E+30   -1.000000E+30   -1.000000E+30   -1.000000E+30   -1.000000E+30   -1.000000E+30   -1.000000E+30
        -1.000000E+30   -1.000000E+30   -1.000000E+30   -1.000000E+30   -1.000000E+30   -1.000000E+30   -1.000000E+30   -1.000000E+30   -1.000000E+30   -1.000000E+30
        -1.000000E+30   -1.000000E+30   -1.000000E+30   -1.000000E+30   -1.000000E+30
1
  HEAD IN LAYER   2 AT END OF TIME STEP   1 IN STRESS PERIOD    1
  ---------------------------------------------------------------------------

                1               2               3               4               5               6               7               8               9              10
               11              12              13              14              15              16              17              18              19              20
               21              22              23              24              25              26              27              28              29              30
               31              32              33              34              35              36              37              38              39              40
               41              42              43              44              45              46              47              48              49              50
               51              52              53              54              55              56              57              58              59              60
               61              62              63              64              65              66              67              68              69              70
               71              72              73              74              75              76              77              78              79              80
               81              82              83              84              85              86              87              88              89              90
               91              92              93              94              95              96              97              98              99             100
              101             102             103             104             105             106             107             108             109             110
              111             112             113             114             115             116             117             118             119             120
              121             122             123             124             125             126             127             128             129             130
              131             132             133             134             135             136             137             138             139             140
              141             142             143             144             145             146             147             148             149             150
              151             152             153             154             155             156             157             158             159             160
              161             162             163             164             165             166             167             168             169             170
              171             172             173             174             175             176             177             178             179             180
              181             182             183             184             185             186             187             188             189             190
              191             192             193             194             195             196             197             198             199             200
              201             202             203             204             205             206             207             208             209             210
              211             212             213             214             215             216             217             218             219             220
              221             222             223             224             225             226             227             228             229             230
              231             232             233             234             235             236             237             238             239             240
              241             242             243             244             245             246             247             248             249             250
              251             252             253             254             255             256             257             258             259             260
              261             262             263             264             265             266             267             268             269             270
              271             272             273             274             275             276             277             278             279             280
              281             282             283             284             285             286             287             288             289             290
              291             292             293             294             295             296             297             298             299             300
              301             302             303             304             305             306             307             308             309             310
              311             312             313             314             315             316             317             318             319             320
              321             322             323             324             325             326             327             328             329             330
              331             332             333             334             335             336             337             338             339             340
              341             342             343             344             345             346             347             348             349             350
              351             352             353             354             355             356             357             358             359             360
              361             362             363             364             365             366             367             368             369             370
              371             372             373             374             375             376             377             378             379             380
              381             382             383             384             385             386             387             388             389             390
              391             392             393             394             395             396             397             398             399             400
              401             402             403             404             405             406             407             408             409             410
              411             412             413             414             415             416             417             418             419             420
              421             422             423             424             425             426             427             428             429             430
              431             432             433             434             435             436             437             438             439             440
              441             442             443             444             445             446             447             448             449             450
              451             452             453             454             455             456             457             458             459             460
              461             462             463             464             465             466             467             468             469             470
              471             472             473             474             475             476             477             478             479             480
              481             482             483             484             485             486             487             488             489             490
              491             492             493             494             495             496             497             498             499             500
              501             502             503             504             505             506             507             508             509             510
              511             512             513             514             515             516             517             518             519             520
              521             522             523             524             525             526             527             528             529             530
              531             532             533             534             535             536             537             538             539             540
              541             542             543             544             545             546             547             548             549             550
              551             552             553             554             555             556             557             558             559             560
              561             562             563             564             565             566             567             568             569             570
              571             572             573             574             575             576             577             578             579             580
              581             582             583             584             585             586             587             588             589             590
              591             592             593             594             595             596             597             598             599             600
              601             602             603             604             605             606             607             608             609             610
              611             612             613             614             615             616             617             618             619             620
              621             622             623             624             625             626             627             628             629             630
              631             632             633             634             635             636             637             638             639             640
              641             642             643             644             645             646             647             648             649             650
              651             652             653             654             655             656             657             658             659             660
              661             662             663             664             665             666             667             668             669             670
              671             672             673             674             675             676             677             678             679             680
              681             682             683             684             685             686             687             688             689             690
              691             692             693             694             695             696             697             698             699             700
              701             702             703             704             705             706             707             708             709             710
              711             712             713             714             715             716             717             718             719             720
              721             722             723             724             725             726             727             728             729             730
              731             732             733             734             735             736             737             738             739             740
              741             742             743             744             745             746             747             748             749             750
              751             752             753             754             755             756             757             758             759             760
              761             762             763             764             765             766             767             768             769             770
              771             772             773             774             775             776             777             778             779             780
              781             782             783             784             785             786             787             788             789             790
              791             792             793             794             795             796             797             798             799             800
              801             802             803             804             805             806             807             808             809             810
              811             812             813             814             815             816             817             818             819             820
              821             822             823             824             825             826             827             828             829             830
              831             832             833             834             835             836             837             838             839             840
              841             842             843             844             845             846             847             848             849             850
              851             852             853             854             855             856             857             858             859             860
              861             862             863             864             865             866             867             868             869             870
              871             872             873             874             875             876             877             878             879             880
              881             882             883             884             885             886             887             888             889             890
              891             892             893             894             895             896             897             898             899             900
              901             902             903             904             905             906             907             908             909             910
              911             912             913             914             915             916             917             918             919             920
              921             922             923             924             925             926             927             928             929             930
              931             932             933             934             935             936             937             938             939             940
              941             942             943             944             945             946             947             948             949             950
              951             952             953             954             955             956             957             958             959             960
              961             962             963             964             965             966             967             968             969             970
              971             972             973             974             975             976             977             978             979             980
              981             982             983             984             985             986             987             988             989             990
              991             992             993             994             995             996             997             998             999            1000
             1001            1002            1003            1004            1005            1006            1007            1008            1009            1010
             1011            1012            1013            1014            1015            1016            1017            1018            1019            1020
             1021            1022            1023            1024            1025            1026            1027            1028            1029            1030
             1031            1032            1033            1034            1035            1036            1037            1038            1039            1040
             1041            1042            1043            1044            1045            1046            1047            1048            1049            1050
             1051            1052            1053            1054            1055            1056            1057            1058            1059            1060
             1061            1062            1063            1064            1065            1066            1067            1068            1069            1070
             1071            1072            1073            1074            1075            1076            1077            1078            1079            1080
             1081            1082            1083            1084            1085            1086            1087            1088            1089            1090
             1091            1092            1093            1094            1095            1096            1097            1098            1099            1100
             1101            1102            1103            1104            1105            1106            1107            1108            1109            1110
             1111            1112            1113            1114            1115            1116            1117            1118            1119            1120
             1121            1122            1123            1124            1125            1126            1127            1128            1129            1130
             1131            1132            1133            1134            1135            1136            1137            1138            1139            1140
             1141            1142            1143            1144            1145            1146            1147            1148            1149            1150
             1151            1152            1153            1154            1155            1156            1157            1158            1159            1160
             1161            1162            1163            1164            1165            1166            1167            1168            1169            1170
             1171            1172            1173            1174            1175            1176            1177            1178            1179            1180
             1181            1182            1183            1184            1185            1186            1187            1188            1189            1190
             1191            1192            1193            1194            1195            1196            1197            1198            1199            1200
             1201            1202            1203            1204            1205            1206            1207            1208            1209            1210
             1211            1212            1213            1214            1215            1216            1217            1218            1219            1220
             1221            1222            1223            1224            1225            1226            1227            1228            1229            1230
             1231            1232            1233            1234            1235            1236            1237            1238            1239            1240
             1241            1242            1243            1244            1245            1246            1247            1248            1249            1250
             1251            1252            1253            1254            1255            1256            1257            1258            1259            1260
             1261            1262            1263            1264            1265            1266            1267            1268            1269            1270
             1271            1272            1273            1274            1275            1276            1277            1278            1279            1280
             1281            1282            1283            1284            1285            1286            1287            1288            1289            1290
             1291            1292            1293            1294            1295            1296            1297            1298            1299            1300
             1301            1302            1303            1304            1305            1306            1307            1308            1309            1310
             1311            1312            1313            1314            1315            1316            1317            1318            1319            1320
             1321            1322            1323            1324            1325            1326            1327            1328            1329            1330
             1331            1332            1333            1334            1335            1336            1337            1338            1339            1340
             1341            1342            1343            1344            1345            1346            1347            1348            1349            1350
             1351            1352            1353            1354            1355            1356            1357            1358            1359            1360
             1361            1362            1363            1364            1365            1366            1367            1368            1369            1370
             1371            1372            1373            1374            1375            1376            1377            1378            1379            1380
             1381            1382            1383            1384            1385            1386            1387            1388            1389            1390
             1391            1392            1393            1394            1395            1396            1397            1398            1399            1400
             1401            1402            1403            1404            1405            1406            1407            1408            1409            1410
             1411            1412            1413            1414            1415            1416            1417            1418            1419            1420
             1421            1422            1423            1424            1425            1426            1427            1428            1429            1430
             1431            1432            1433            1434            1435            1436            1437            1438            1439            1440
             1441            1442            1443            1444            1445            1446            1447            1448            1449            1450
             1451            1452            1453            1454            1455            1456            1457            1458            1459            1460
             1461            1462            1463            1464            1465            1466            1467            1468            1469            1470
             1471            1472            1473            1474            1475            1476            1477            1478            1479            1480
             1481            1482            1483            1484            1485            1486            1487            1488            1489            1490
             1491            1492            1493            1494            1495            1496            1497            1498            1499            1500
             1501            1502            1503            1504            1505            1506            1507            1508            1509            1510
             1511            1512            1513            1514            1515            1516            1517            1518            1519            1520
             1521            1522            1523            1524            1525            1526            1527            1528            1529            1530
             1531            1532            1533            1534            1535            1536            1537            1538            1539            1540
             1541            1542            1543            1544            1545            1546            1547            1548            1549            1550
             1551            1552            1553            1554            1555            1556            1557            1558            1559            1560
             1561            1562            1563            1564            1565            1566            1567            1568            1569            1570
             1571            1572            1573            1574            1575            1576            1577            1578            1579            1580
             1581            1582            1583            1584            1585            1586            1587            1588            1589            1590
             1591            1592            1593            1594            1595            1596            1597            1598            1599            1600
             1601            1602            1603            1604            1605            1606            1607            1608            1609            1610
             1611            1612            1613            1614            1615            1616            1617            1618            1619            1620
             1621            1622            1623            1624            1625            1626            1627            1628            1629            1630
             1631            1632            1633            1634            1635            1636            1637            1638            1639            1640
             1641            1642            1643            1644            1645            1646            1647            1648            1649            1650
             1651            1652            1653            1654            1655            1656            1657            1658            1659            1660
             1661            1662            1663            1664            1665            1666            1667            1668            1669            1670
             1671            1672            1673            1674            1675            1676            1677            1678            1679            1680
             1681            1682            1683            1684            1685            1686            1687            1688            1689            1690
             1691            1692            1693            1694            1695            1696            1697            1698            1699            1700
             1701            1702            1703            1704            1705            1706            1707            1708            1709            1710
             1711            1712            1713            1714            1715            1716            1717            1718            1719            1720
             1721            1722            1723            1724            1725            1726            1727            1728            1729            1730
             1731            1732            1733            1734            1735            1736            1737            1738            1739            1740
             1741            1742            1743            1744            1745            1746            1747            1748            1749            1750
             1751            1752            1753            1754            1755            1756            1757            1758            1759            1760
             1761            1762            1763            1764            1765            1766            1767            1768            1769            1770
             1771            1772            1773            1774            1775            1776            1777            1778            1779            1780
             1781            1782            1783            1784            1785            1786            1787            1788            1789            1790
             1791            1792            1793            1794            1795            1796            1797            1798            1799            1800
             1801            1802            1803            1804            1805            1806            1807            1808            1809            1810
             1811            1812            1813            1814            1815            1816            1817            1818            1819            1820
             1821            1822            1823            1824            1825            1826            1827            1828            1829            1830
             1831            1832            1833            1834            1835            1836            1837            1838            1839            1840
             1841            1842            1843            1844            1845            1846            1847            1848            1849            1850
             1851            1852            1853            1854            1855            1856            1857            1858            1859            1860
             1861            1862            1863            1864            1865            1866            1867            1868            1869            1870
             1871            1872            1873            1874            1875            1876            1877            1878            1879            1880
             1881            1882            1883            1884            1885            1886            1887            1888            1889            1890
             1891            1892            1893            1894            1895            1896            1897            1898            1899            1900
             1901            1902            1903            1904            1905            1906            1907            1908            1909            1910
             1911            1912            1913            1914            1915            1916            1917            1918            1919            1920
             1921            1922            1923            1924            1925            1926            1927            1928            1929            1930
             1931            1932            1933            1934            1935            1936            1937            1938            1939            1940
             1941            1942            1943            1944            1945            1946            1947            1948            1949            1950
             1951            1952            1953            1954            1955            1956            1957            1958            1959            1960
             1961            1962            1963            1964            1965            1966            1967            1968            1969            1970
             1971            1972            1973            1974            1975            1976            1977            1978            1979            1980
             1981            1982            1983            1984            1985            1986            1987            1988            1989            1990
             1991            1992            1993            1994            1995            1996            1997            1998            1999            2000
             2001            2002            2003            2004            2005            2006            2007            2008            2009            2010
             2011            2012            2013            2014            2015            2016            2017            2018            2019            2020
             2021            2022            2023            2024            2025            2026            2027            2028            2029            2030
             2031            2032            2033            2034            2035            2036            2037            2038            2039            2040
             2041            2042            2043            2044            2045            2046            2047            2048            2049            2050
             2051            2052            2053            2054            2055            2056            2057            2058            2059            2060
             2061            2062            2063            2064            2065            2066            2067            2068            2069            2070
             2071            2072            2073            2074            2075            2076            2077            2078            2079            2080
             2081            2082            2083            2084            2085            2086            2087            2088            2089            2090
             2091            2092            2093            2094            2095            2096            2097            2098            2099            2100
             2101            2102            2103            2104            2105            2106            2107            2108            2109            2110
             2111            2112            2113            2114            2115            2116            2117            2118            2119            2120
             2121            2122            2123            2124            2125            2126            2127            2128            2129            2130
             2131            2132            2133            2134            2135            2136            2137            2138            2139            2140
             2141            2142            2143            2144            2145            2146            2147            2148            2149            2150
             2151            2152            2153            2154            2155            2156            2157            2158            2159            2160
             2161            2162            2163            2164            2165            2166            2167            2168            2169            2170
             2171            2172            2173            2174            2175            2176            2177            2178            2179            2180
             2181            2182            2183            2184            2185            2186            2187            2188            2189            2190
             2191            2192            2193            2194            2195            2196            2197            2198            2199            2200
             2201            2202            2203            2204            2205            2206            2207            2208            2209            2210
             2211            2212            2213            2214            2215            2216            2217            2218            2219            2220
             2221            2222            2223            2224            2225            2226            2227            2228            2229            2230
             2231            2232            2233            2234            2235            2236            2237            2238            2239            2240
             2241            2242            2243            2244            2245            2246            2247            2248            2249            2250
             2251            2252            2253            2254            2255            2256            2257            2258            2259            2260
             2261            2262            2263            2264            2265            2266            2267            2268            2269            2270
             2271            2272            2273            2274            2275            2276            2277            2278            2279            2280
             2281            2282            2283            2284            2285            2286            2287            2288            2289            2290
             2291            2292            2293            2294            2295            2296            2297            2298            2299            2300
             2301            2302            2303            2304            2305            2306            2307            2308            2309            2310
             2311            2312            2313            2314            2315            2316            2317            2318            2319            2320
             2321            2322            2323            2324            2325            2326            2327            2328            2329            2330
             2331            2332            2333            2334            2335            2336            2337            2338            2339            2340
             2341            2342            2343            2344            2345            2346            2347            2348            2349            2350
             2351            2352            2353            2354            2355            2356            2357            2358            2359            2360
             2361            2362            2363            2364            2365            2366            2367            2368            2369            2370
             2371            2372            2373            2374            2375            2376            2377            2378            2379            2380
             2381            2382            2383            2384            2385            2386            2387            2388            2389            2390
             2391            2392            2393            2394            2395            2396            2397            2398            2399            2400
             2401            2402            2403            2404            2405            2406            2407            2408            2409            2410
             2411            2412            2413            2414            2415            2416            2417            2418            2419            2420
             2421            2422            2423            2424            2425            2426            2427            2428            2429            2430
             2431            2432            2433            2434            2435            2436            2437            2438            2439            2440
             2441            2442            2443            2444            2445            2446            2447            2448            2449            2450
             2451            2452            2453            2454            2455            2456            2457            2458            2459            2460
             2461            2462            2463            2464            2465            2466            2467            2468            2469            2470
             2471            2472            2473            2474            2475            2476            2477            2478            2479            2480
             2481            2482            2483            2484            2485            2486            2487            2488            2489            2490
             2491            2492            2493            2494            2495            2496            2497            2498            2499            2500
             2501            2502            2503            2504            2505            2506            2507            2508            2509            2510
             2511            2512            2513            2514            2515            2516            2517            2518            2519            2520
             2521            2522            2523            2524            2525            2526            2527            2528            2529            2530
             2531            2532            2533            2534            2535            2536            2537            2538            2539            2540
             2541            2542            2543            2544            2545            2546            2547            2548            2549            2550
             2551            2552            2553            2554            2555            2556            2557            2558            2559            2560
             2561            2562            2563            2564            2565            2566            2567            2568            2569            2570
             2571            2572            2573            2574            2575            2576            2577            2578            2579            2580
             2581            2582            2583            2584            2585            2586            2587            2588            2589            2590
             2591            2592            2593            2594            2595            2596            2597            2598            2599            2600
             2601            2602            2603            2604            2605            2606            2607            2608            2609            2610
             2611            2612            2613            2614            2615            2616            2617            2618            2619            2620
             2621            2622            2623            2624            2625            2626            2627            2628            2629            2630
             2631            2632            2633            2634            2635            2636            2637            2638            2639            2640
             2641            2642            2643            2644            2645            2646            2647            2648            2649            2650
             2651            2652            2653            2654            2655            2656            2657            2658            2659            2660
             2661            2662            2663            2664            2665            2666            2667            2668            2669            2670
             2671            2672            2673            2674            2675            2676            2677            2678            2679            2680
             2681            2682            2683            2684            2685            2686            2687            2688            2689            2690
             2691            2692            2693            2694            2695            2696            2697            2698            2699            2700
             2701            2702            2703            2704            2705            2706            2707            2708            2709            2710
             2711            2712            2713            2714            2715            2716            2717            2718            2719            2720
             2721            2722            2723            2724            2725            2726            2727            2728            2729            2730
             2731            2732            2733            2734            2735            2736            2737            2738            2739            2740
             2741            2742            2743            2744            2745            2746            2747            2748            2749            2750
             2751            2752            2753            2754            2755            2756            2757            2758            2759            2760
             2761            2762            2763            2764            2765            2766            2767            2768            2769            2770
             2771            2772            2773            2774            2775            2776            2777            2778            2779            2780
             2781            2782            2783            2784            2785            2786            2787            2788            2789            2790
             2791            2792            2793            2794            2795            2796            2797            2798            2799            2800
             2801            2802            2803            2804            2805            2806            2807            2808            2809            2810
             2811            2812            2813            2814            2815            2816            2817            2818            2819            2820
             2821            2822            2823            2824            2825            2826            2827            2828            2829            2830
             2831            2832            2833            2834            2835            2836            2837            2838            2839            2840
             2841            2842            2843            2844            2845            2846            2847            2848            2849            2850
             2851            2852            2853            2854            2855            2856            2857            2858            2859            2860
             2861            2862            2863            2864            2865            2866            2867            2868            2869            2870
             2871            2872            2873            2874            2875            2876            2877            2878            2879            2880
             2881            2882            2883            2884            2885            2886            2887            2888            2889            2890
             2891            2892            2893            2894            2895            2896            2897            2898            2899            2900
             2901            2902            2903            2904            2905            2906            2907            2908            2909            2910
             2911            2912            2913            2914            2915            2916            2917            2918            2919            2920
             2921            2922            2923            2924            2925            2926            2927            2928            2929            2930
             2931            2932            2933            2934            2935            2936            2937            2938            2939            2940
             2941            2942            2943            2944            2945            2946            2947            2948            2949            2950
             2951            2952            2953            2954            2955            2956            2957            2958            2959            2960
             2961            2962            2963            2964            2965            2966            2967            2968            2969            2970
             2971            2972            2973            2974            2975            2976            2977            2978            2979            2980
             2981            2982            2983            2984            2985            2986            2987            2988            2989            2990
             2991            2992            2993            2994            2995            2996            2997            2998            2999            3000
             3001            3002            3003            3004            3005            3006            3007            3008            3009            3010
             3011            3012            3013            3014            3015            3016            3017            3018            3019            3020
             3021            3022            3023            3024            3025            3026            3027            3028            3029            3030
             3031            3032            3033            3034            3035            3036            3037            3038            3039            3040
             3041            3042            3043            3044            3045            3046            3047            3048            3049            3050
             3051            3052            3053            3054            3055            3056            3057            3058            3059            3060
             3061            3062            3063            3064            3065            3066            3067            3068            3069            3070
             3071            3072            3073            3074            3075            3076            3077            3078            3079            3080
             3081            3082            3083            3084            3085            3086            3087            3088            3089            3090
             3091            3092            3093            3094            3095            3096            3097            3098            3099            3100
             3101            3102            3103            3104            3105            3106            3107            3108            3109            3110
             3111            3112            3113            3114            3115            3116            3117            3118            3119            3120
             3121            3122            3123            3124            3125            3126            3127            3128            3129            3130
             3131            3132            3133            3134            3135
 ................................................................................................................................................................
   1      133.639         133.630         133.608         133.575         133.555         133.547         133.547         133.538         133.547         133.585    
          133.640         133.701         133.765         133.829         133.893         133.956         134.016         134.073         134.128         134.183    
          134.234         134.279         134.311         133.610         133.617         133.611         133.592         133.562         133.539         133.527    
          133.535         133.524         133.523         133.529         133.517         133.520         133.550         133.602         133.662         133.727    
          133.793         133.860         133.926         133.990         134.051         134.110         134.168         134.224         134.278         134.328    
          134.377         133.590         133.597         133.600         133.594         133.578         133.555         133.530         133.517         133.516    
          133.518         133.516         133.524         133.535         133.518         133.525         133.559         133.578         133.542         133.564    
          133.613         133.677         133.746         133.816         133.887         133.956         134.022         134.086         134.148         134.209    
          134.270         134.330         134.388         134.435         133.577         133.582         133.587         133.587         133.582         133.571    
          133.554         133.536         133.523         133.518         133.530         133.546         133.524         133.534         133.569         133.589    
          133.551         133.575         133.627         133.696         133.771         133.846         133.921         133.992         134.060         134.126    
          134.191         134.257         134.322         134.387         134.446         134.493         133.565         133.570         133.575         133.578    
          133.579         133.576         133.568         133.557         133.545         133.534         133.527         133.527         133.540         133.558    
          133.536         133.547         133.584         133.606         133.567         133.594         133.650         133.727         133.809         133.888    
          133.962         134.033         134.102         134.171         134.240         134.309         134.379         134.447         134.508         134.559    
          133.552         133.558         133.564         133.569         133.573         133.574         133.573         133.569         133.563         133.555    
          133.548         133.543         133.540         133.544         133.559         133.579         133.558         133.572         133.609         133.637    
          133.596         133.628         133.692         133.779         133.861         133.937         134.008         134.077         134.147         134.219    
          134.293         134.368         134.443         134.515         134.582         134.641         133.538         133.545         133.552         133.559    
          133.564         133.569         133.572         133.573         133.572         133.570         133.567         133.564         133.561         133.561    
          133.564         133.575         133.594         133.620         133.601         133.620         133.659         133.695         133.655         133.695    
          133.763         133.844         133.916         133.984         134.051         134.122         134.196         134.273         134.353         134.434    
          134.516         134.597         134.675         134.746         133.521         133.530         133.539         133.547         133.554         133.561    
          133.567         133.571         133.575         133.577         133.578         133.579         133.580         133.582         133.586         133.593    
          133.606         133.633         133.664         133.702         133.680         133.712         133.748         133.782         133.754         133.789    
          133.839         133.901         133.961         134.024         134.093         134.168         134.249         134.334         134.422         134.512    
          134.604         134.699         134.796         134.893         133.504         133.513         133.523         133.533         133.542         133.551    
          133.559         133.566         133.572         133.577         133.582         133.587         133.591         133.596         133.602         133.610    
          133.623         133.641         133.671         133.719         133.763         133.795         133.770         133.796         133.827         133.850    
          133.827         133.848         133.880         133.902         133.876         133.896         133.932         133.955         133.922         133.948    
          133.996         134.061         134.137         134.222         134.312         134.405         134.502         134.603         134.711         134.830    
          134.966         135.144         135.293         135.417         135.522         135.614         135.694         135.764         135.827         135.885    
          135.938         135.986         136.030         136.069         136.103         136.131         136.149         136.154         136.139         136.097    
          136.013         135.859         135.758         135.686         135.632         135.590         135.557         135.530         135.506         135.486    
          135.469         135.454         135.441         135.429         135.419         135.409         135.402         133.501         133.508         133.518    
          133.529         133.539         133.548         133.557         133.566         133.574         133.581         133.588         133.595         133.603    
          133.611         133.621         133.633         133.649         133.671         133.701         133.742         133.790         133.837         133.881    
          133.916         133.939         133.914         133.932         133.966         133.987         133.956         133.976         134.021         134.048    
          134.005         134.037         134.103         134.192         134.286         134.383         134.484         134.591         134.706         134.831    
          134.967         135.114         135.251         135.369         135.472         135.561         135.640         135.710         135.773         135.829    
          135.879         135.924         135.965         135.999         136.028         136.048         136.058         136.054         136.027         135.972    
          135.901         135.810         135.732         135.670         135.621         135.582         135.551         135.525         135.502         135.483    
          135.466         135.451         135.438         135.427         135.416         135.405         135.397         135.390         133.498         133.505    
          133.515         133.525         133.536         133.547         133.557         133.567         133.576         133.585         133.594         133.604    
          133.614         133.625         133.637         133.653         133.671         133.695         133.724         133.760         133.800         133.840    
          133.880         133.919         133.959         133.996         134.025         133.993         134.020         134.075         134.163         134.259    
          134.357         134.460         134.569         134.685         134.809         134.937         135.067         135.192         135.303         135.401    
          135.488         135.564         135.633         135.693         135.747         135.795         135.837         135.874         135.904         135.927    
          135.943         135.947         135.937         135.909         135.866         135.812         135.751         135.693         135.643         135.602    
          135.567         135.539         135.515         135.494         135.475         135.459         135.446         135.433         135.422         135.411    
          135.399         135.390         135.383         135.374         133.495         133.502         133.512         133.523         133.534         133.546    
          133.557         133.568         133.578         133.589         133.600         133.611         133.623         133.637         133.652         133.669    
          133.689         133.713         133.741         133.774         133.809         133.846         133.883         133.921         133.960         133.993    
          134.017         133.995         134.016         134.048         134.077         134.045         134.077         134.139         134.232         134.329    
          134.431         134.539         134.653         134.773         134.894         135.013         135.127         135.231         135.324         135.407    
          135.481         135.547         135.606         135.657         135.703         135.742         135.775         135.803         135.823         135.835    
          135.838         135.828         135.806         135.775         135.735         135.691         135.648         135.610         135.576         135.547    
          135.522         135.501         135.482         135.465         135.450         135.437         135.426         135.415         135.404         135.392    
          135.382         135.374         135.364         135.354         133.493         133.500         133.510         133.521         133.533         133.545    
          133.557         133.569         133.581         133.593         133.606         133.619         133.632         133.647         133.664         133.682    
          133.703         133.727         133.755         133.785         133.818         133.853         133.889         133.926         133.965         134.009    
          134.047         134.076         134.049         134.073         134.112         134.143         134.106         134.141         134.206         134.298    
          134.398         134.503         134.614         134.730         134.845         134.956         135.062         135.160         135.248         135.327    
          135.398         135.461         135.518         135.567         135.611         135.647         135.679         135.704         135.722         135.733    
          135.736         135.730         135.715         135.693         135.665         135.633         135.602         135.573         135.546         135.523    
          135.502         135.483         135.467         135.452         135.439         135.427         135.416         135.406         135.394         135.382    
          135.372         135.362         135.353         135.344         135.335         133.492         133.499         133.509         133.520         133.533    
          133.546         133.558         133.571         133.584         133.597         133.611         133.625         133.640         133.656         133.674    
          133.693         133.714         133.739         133.765         133.795         133.826         133.860         133.895         133.931         133.970    
          134.013         134.062         134.105         134.136         134.104         134.129         134.174         134.205         134.163         134.199    
          134.266         134.360         134.463         134.571         134.683         134.794         134.899         135.000         135.092         135.176    
          135.252         135.319         135.380         135.434         135.481         135.523         135.558         135.587         135.611         135.628    
          135.639         135.644         135.641         135.633         135.619         135.600         135.578         135.556         135.534         135.514    
          135.495         135.479         135.463         135.449         135.436         135.425         135.414         135.404         135.394         135.382    
          135.369         135.359         135.350         135.342         135.334         135.327         135.321         133.491         133.498         133.508    
          133.520         133.533         133.546         133.559         133.573         133.587         133.601         133.615         133.630         133.646    
          133.663         133.682         133.702         133.724         133.748         133.774         133.802         133.833         133.866         133.900    
          133.936         133.974         134.016         134.062         134.112         134.157         134.188         134.153         134.177         134.226    
          134.258         134.211         134.248         134.320         134.420         134.527         134.637         134.744         134.845         134.941    
          135.030         135.110         135.182         135.246         135.304         135.356         135.402         135.441         135.475         135.503    
          135.526         135.543         135.555         135.561         135.562         135.560         135.552         135.540         135.526         135.511    
          135.496         135.481         135.467         135.454         135.441         135.430         135.419         135.409         135.399         135.390    
          135.379         135.366         135.355         135.345         135.338         135.331         135.324         135.319         135.314         135.309    
          133.490         133.497         133.507         133.520         133.533         133.547         133.561         133.575         133.589         133.604    
          133.619         133.635         133.652         133.669         133.688         133.709         133.731         133.755         133.781         133.809    
          133.839         133.871         133.905         133.940         133.978         134.018         134.062         134.108         134.157         134.201    
          134.234         134.196         134.221         134.275         134.310         134.258         134.299         134.378         134.484         134.592    
          134.697         134.795         134.887         134.972         135.049         135.119         135.180         135.236         135.285         135.329    
          135.366         135.399         135.426         135.449         135.466         135.479         135.487         135.491         135.493         135.490    
          135.485         135.477         135.468         135.458         135.448         135.438         135.428         135.418         135.408         135.399    
          135.390         135.382         135.373         135.361         135.349         135.340         135.332         135.325         135.319         135.315    
          135.310         135.307         135.305         133.490         133.497         133.507         133.520         133.533         133.547         133.562    
          133.576         133.591         133.607         133.623         133.639         133.656         133.674         133.694         133.714         133.737    
          133.761         133.786         133.814         133.844         133.875         133.909         133.944         133.981         134.021         134.062    
          134.106         134.152         134.200         134.247         134.284         134.243         134.272         134.332         134.372         134.316    
          134.363         134.446         134.552         134.655         134.751         134.839         134.921         134.995         135.062         135.121    
          135.174         135.221         135.263         135.299         135.331         135.358         135.380         135.398         135.412         135.422    
          135.429         135.433         135.435         135.434         135.431         135.427         135.421         135.415         135.408         135.401    
          135.394         135.386         135.378         135.371         135.363         135.353         135.342         135.332         135.325         135.319    
          135.313         135.309         135.305         135.302         135.300         135.299         133.490         133.497         133.507         133.520    
          133.534         133.548         133.562         133.577         133.593         133.609         133.625         133.642         133.660         133.678    
          133.698         133.719         133.741         133.765         133.791         133.818         133.848         133.879         133.912         133.947    
          133.984         134.023         134.064         134.107         134.152         134.199         134.252         134.307         134.351         134.302    
          134.344         134.419         134.520         134.618         134.711         134.797         134.875         134.947         135.011         135.069    
          135.120         135.164         135.204         135.240         135.271         135.297         135.319         135.338         135.353         135.365    
          135.374         135.380         135.384         135.388         135.389         135.388         135.386         135.383         135.379         135.374    
          135.369         135.363         135.357         135.351         135.343         135.333         135.324         135.317         135.311         135.306    
          135.302         135.299         135.296         135.294         135.292         135.292         133.490         133.497         133.508         133.520    
          133.534         133.548         133.563         133.578         133.594         133.610         133.627         133.644         133.662         133.681    
          133.701         133.722         133.745         133.769         133.794         133.822         133.851         133.882         133.914         133.949    
          133.986         134.025         134.066         134.109         134.154         134.202         134.254         134.300         134.337         134.300    
          134.335         134.401         134.496         134.589         134.678         134.760         134.835         134.904         134.966         135.022    
          135.071         135.115         135.153         135.187         135.217         135.244         135.266         135.285         135.302         135.315    
          135.325         135.334         135.340         135.345         135.350         135.352         135.353         135.353         135.351         135.348    
          135.345         135.341         135.336         135.330         135.323         135.315         135.308         135.303         135.299         135.295    
          135.292         135.289         135.288         135.286         135.285         135.285         133.491         133.498         133.509         133.521    
          133.534         133.548         133.563         133.579         133.595         133.611         133.628         133.646         133.664         133.683    
          133.703         133.725         133.747         133.771         133.797         133.824         133.853         133.884         133.916         133.951    
          133.988         134.027         134.068         134.112         134.158         134.207         134.260         134.304         134.336         134.308    
          134.335         134.377         134.412         134.374         134.413         134.480         134.567         134.651         134.729         134.802    
          134.867         134.927         134.981         135.028         135.070         135.107         135.140         135.170         135.196         135.219    
          135.239         135.257         135.271         135.283         135.293         135.301         135.308         135.314         135.318         135.322    
          135.324         135.324         135.323         135.321         135.319         135.315         135.311         135.305         135.299         135.294    
          135.291         135.288         135.285         135.283         135.281         135.280         135.279         135.278         135.278         133.492    
          133.500         133.510         133.522         133.534         133.548         133.563         133.578         133.595         133.611         133.629    
          133.647         133.665         133.685         133.705         133.726         133.749         133.773         133.799         133.826         133.855    
          133.885         133.918         133.952         133.989         134.028         134.070         134.114         134.161         134.210         134.264    
          134.324         134.375         134.412         134.374         134.411         134.470         134.550         134.629         134.703         134.772    
          134.836         134.893         134.945         134.990         135.031         135.067         135.099         135.128         135.154         135.178    
          135.199         135.217         135.233         135.246         135.258         135.267         135.275         135.282         135.288         135.293    
          135.297         135.299         135.300         135.300         135.298         135.296         135.293         135.290         135.286         135.283    
          135.280         135.278         135.276         135.274         135.273         135.272         135.272         135.271         135.271         133.505    
          133.512         133.522         133.534         133.548         133.562         133.578         133.594         133.611         133.628         133.646    
          133.665         133.685         133.705         133.727         133.750         133.774         133.800         133.827         133.856         133.886    
          133.918         133.952         133.989         134.028         134.070         134.114         134.161         134.212         134.265         134.323    
          134.373         134.408         134.371         134.405         134.461         134.536         134.609         134.680         134.747         134.809    
          134.864         134.913         134.957         134.996         135.031         135.062         135.090         135.116         135.140         135.162    
          135.181         135.198         135.213         135.226         135.237         135.246         135.255         135.262         135.268         135.273    
          135.277         135.279         135.280         135.281         135.280         135.279         135.276         135.274         135.272         135.271    
          135.269         135.268         135.267         135.266         135.266         135.265         135.265         135.265         133.515         133.524    
          133.535         133.547         133.561         133.577         133.593         133.609         133.627         133.646         133.665         133.685    
          133.705         133.727         133.750         133.774         133.800         133.827         133.856         133.886         133.918         133.952    
          133.988         134.027         134.069         134.113         134.160         134.209         134.263         134.309         134.334         134.305    
          134.334         134.368         134.401         134.365         134.398         134.451         134.521         134.592         134.661         134.725    
          134.785         134.839         134.886         134.929         134.967         135.000         135.014         134.986         135.001         135.031    
          135.042         135.016         135.031         135.057         135.084         135.108         135.129         135.149         135.167         135.183    
          135.198         135.210         135.221         135.230         135.238         135.246         135.252         135.257         135.261         135.263    
          135.265         135.266         135.266         135.265         135.264         135.263         135.262         135.262         135.261         135.260    
          135.260         135.259         135.259         135.259         135.259         133.527         133.536         133.547         133.560         133.575    
          133.591         133.608         133.625         133.644         133.663         133.683         133.704         133.726         133.750         133.774    
          133.800         133.827         133.855         133.885         133.917         133.951         133.987         134.025         134.066         134.109    
          134.155         134.205         134.258         134.302         134.330         134.300         134.325         134.362         134.393         134.358    
          134.385         134.428         134.455         134.420         134.452         134.506         134.575         134.643         134.706         134.763    
          134.816         134.863         134.904         134.939         134.954         134.927         134.943         134.972         134.988         134.959    
          134.975         135.003         135.017         134.990         135.004         135.031         135.041         135.018         135.031         135.055    
          135.079         135.101         135.121         135.139         135.156         135.172         135.186         135.198         135.209         135.218    
          135.226         135.233         135.239         135.244         135.247         135.250         135.252         135.254         135.254         135.255    
          135.255         135.255         135.254         135.254         135.254         135.253         135.253         135.253         135.253         135.253    
          133.538         133.548         133.560         133.574         133.589         133.606         133.623         133.642         133.661         133.682    
          133.703         133.725         133.748         133.773         133.799         133.826         133.854         133.884         133.915         133.948    
          133.984         134.021         134.061         134.104         134.149         134.197         134.249         134.305         134.364         134.414    
          134.446         134.410         134.437         134.482         134.510         134.474         134.503         134.549         134.578         134.541    
          134.570         134.616         134.644         134.607         134.635         134.679         134.705         134.670         134.696         134.737    
          134.761         134.728         134.752         134.790         134.811         134.781         134.802         134.837         134.856         134.828    
          134.846         134.879         134.895         134.869         134.885         134.915         134.931         134.905         134.920         134.948    
          134.963         134.937         134.952         134.978         134.992         134.967         134.981         135.006         135.018         134.994    
          135.008         135.031         135.054         135.076         135.096         135.115         135.132         135.148         135.163         135.177    
          135.188         135.199         135.208         135.216         135.222         135.228         135.232         135.236         135.239         135.241    
          135.243         135.245         135.246         135.246         135.247         135.247         135.247         135.247         135.247         135.247    
          135.246         135.246         133.551         133.560         133.573         133.587         133.604         133.621         133.639         133.659    
          133.679         133.700         133.723         133.746         133.771         133.797         133.824         133.852         133.881         133.912    
          133.945         133.979         134.016         134.055         134.097         134.141         134.188         134.239         134.293         134.350    
          134.412         134.476         134.543         134.608         134.669         134.727         134.778         134.823         134.863         134.899    
          134.927         134.942         134.920         134.932         134.957         134.970         134.948         134.959         134.984         134.997    
          134.973         134.986         135.009         135.018         134.998         135.010         135.032         135.054         135.074         135.093    
          135.110         135.127         135.142         135.156         135.169         135.180         135.190         135.199         135.206         135.213    
          135.218         135.222         135.226         135.229         135.232         135.234         135.236         135.238         135.239         135.239    
          135.240         135.240         135.240         135.240         135.240         135.240         133.563         133.573         133.586         133.601    
          133.618         133.636         133.655         133.676         133.697         133.720         133.744         133.768         133.794         133.821    
          133.849         133.878         133.908         133.940         133.974         134.010         134.048         134.088         134.131         134.177    
          134.227         134.279         134.336         134.395         134.459         134.525         134.591         134.652         134.710         134.762    
          134.807         134.846         134.882         134.913         134.940         134.963         134.976         134.955         134.967         134.988    
          134.999         134.980         134.990         135.012         135.033         135.053         135.072         135.090         135.107         135.122    
          135.137         135.150         135.162         135.172         135.182         135.190         135.198         135.204         135.209         135.213    
          135.217         135.220         135.224         135.226         135.228         135.230         135.231         135.232         135.233         135.233    
          135.233         135.234         135.233         133.576         133.586         133.600         133.615         133.633         133.652         133.672    
          133.693         133.716         133.740         133.765         133.791         133.817         133.845         133.874         133.904         133.935    
          133.968         134.003         134.039         134.078         134.120         134.165         134.213         134.265         134.320         134.378    
          134.441         134.508         134.575         134.636         134.694         134.746         134.792         134.831         134.866         134.897    
          134.922         134.933         134.914         134.926         134.946         134.958         134.938         134.950         134.971         134.993    
          135.014         135.034         135.053         135.071         135.087         135.103         135.118         135.131         135.143         135.155    
          135.165         135.174         135.182         135.189         135.195         135.200         135.204         135.209         135.213         135.216    
          135.219         135.221         135.223         135.224         135.225         135.226         135.226         135.227         135.227         133.589    
          133.599         133.613         133.630         133.648         133.668         133.689         133.712         133.735         133.760         133.786    
          133.813         133.840         133.869         133.898         133.928         133.961         133.994         134.030         134.067         134.108    
          134.151         134.198         134.248         134.303         134.361         134.423         134.490         134.558         134.621         134.679    
          134.732         134.778         134.817         134.852         134.882         134.906         134.918         134.900         134.910         134.930    
          134.941         134.923         134.934         134.954         134.976         134.997         135.016         135.035         135.052         135.069    
          135.084         135.099         135.113         135.125         135.136         135.148         135.158         135.167         135.174         135.181    
          135.187         135.192         135.197         135.202         135.206         135.209         135.212         135.214         135.216         135.217    
          135.218         135.219         135.219         135.220         133.602         133.613         133.627         133.644         133.663         133.684    
          133.707         133.730         133.755         133.781         133.807         133.835         133.863         133.892         133.921         133.953    
          133.985         134.020         134.056         134.095         134.137         134.182         134.231         134.284         134.341         134.404    
          134.470         134.539         134.604         134.664         134.717         134.764         134.804         134.839         134.868         134.894    
          134.915         134.926         134.909         134.920         134.939         134.960         134.980         135.000         135.018         135.035    
          135.052         135.067         135.082         135.095         135.107         135.119         135.130         135.141         135.151         135.160    
          135.167         135.174         135.180         135.186         135.191         135.195         135.199         135.202         135.205         135.207    
          135.209         135.210         135.211         135.212         135.212         133.614         133.626         133.641         133.659         133.680    
          133.702         133.725         133.749         133.775         133.801         133.828         133.856         133.884         133.914         133.944    
          133.976         134.009         134.044         134.081         134.122         134.166         134.214         134.266         134.322         134.383    
          134.449         134.519         134.587         134.649         134.703         134.750         134.790         134.825         134.854         134.879    
          134.900         134.912         134.894         134.905         134.924         134.945         134.965         134.984         135.003         135.020    
          135.036         135.051         135.065         135.079         135.091         135.103         135.114         135.125         135.136         135.146    
          135.154         135.162         135.169         135.175         135.180         135.185         135.190         135.193         135.196         135.199    
          135.201         135.202         135.204         135.205         135.205         133.628         133.640         133.657         133.675         133.696    
          133.719         133.743         133.768         133.794         133.821         133.849         133.877         133.906         133.935         133.966    
          133.998         134.032         134.068         134.107         134.150         134.196         134.247         134.302         134.362         134.428    
          134.498         134.568         134.632         134.688         134.736         134.776         134.810         134.839         134.864         134.885    
          134.896         134.878         134.889         134.909         134.930         134.950         134.970         134.989         135.006         135.022    
          135.037         135.051         135.064         135.076         135.088         135.100         135.111         135.122         135.132         135.142    
          135.150         135.157         135.164         135.170         135.176         135.180         135.184         135.187         135.190         135.193    
          135.195         135.196         135.197         135.198         133.642         133.656         133.673         133.692         133.714         133.737    
          133.761         133.787         133.813         133.841         133.868         133.897         133.926         133.956         133.987         134.020    
          134.055         134.093         134.134         134.179         134.229         134.284         134.343         134.409         134.478         134.549    
          134.614         134.672         134.720         134.760         134.794         134.823         134.848         134.869         134.880         134.862    
          134.873         134.893         134.915         134.936         134.957         134.976         134.994         135.010         135.025         135.039    
          135.051         135.063         135.075         135.087         135.098         135.109         135.120         135.130         135.139         135.147    
          135.151         135.143         135.146         135.155         135.158         135.150         135.153         135.161         135.164         135.156    
          135.159         135.167         135.170         135.163         135.165         135.172         135.174         135.168         135.170         135.177    
          135.178         135.172         135.174         135.180         135.182         135.176         135.178         135.183         135.185         135.179    
          135.181         135.186         135.187         135.182         135.184         135.187         135.189         135.190         135.191         133.659    
          133.672         133.689         133.709         133.731         133.754         133.779         133.805         133.832         133.860         133.888    
          133.917         133.946         133.977         134.008         134.042         134.079         134.119         134.164         134.213         134.267    
          134.326         134.391         134.459         134.529         134.595         134.653         134.702         134.743         134.776         134.805    
          134.831         134.853         134.864         134.846         134.857         134.877         134.900         134.923         134.944         134.964    
          134.983         135.000         135.015         135.029         135.041         135.053         135.064         135.076         135.087         135.098    
          135.103         135.094         135.099         135.109         135.114         135.105         135.109         135.120         135.124         135.115    
          135.119         135.129         135.133         135.124         135.128         135.137         135.141         135.133         135.137         135.144    
          135.151         135.157         135.163         135.167         135.172         135.174         135.169         135.170         135.176         135.177    
          135.172         135.174         135.179         135.180         135.175         135.176         135.181         135.182         135.178         135.179    
          135.182         135.184         135.185         133.675         133.688         133.705         133.725         133.747         133.771         133.796    
          133.823         133.850         133.879         133.907         133.936         133.967         133.998         134.031         134.067         134.106    
          134.150         134.199         134.254         134.313         134.376         134.441         134.507         134.572         134.630         134.684    
          134.725         134.759         134.789         134.812         134.823         134.805         134.816         134.836         134.847         134.829    
          134.839         134.861         134.885         134.909         134.933         134.954         134.973         134.991         135.007         135.021    
          135.033         135.045         135.057         135.067         135.072         135.064         135.069         135.078         135.083         135.075    
          135.079         135.089         135.094         135.085         135.090         135.100         135.110         135.119         135.128         135.135    
          135.143         135.149         135.155         135.160         135.164         135.168         135.171         135.174         135.176         135.172    
          135.173         135.177         135.177         135.174         135.175         135.177         135.179         133.691         133.704         133.721    
          133.741         133.763         133.788         133.814         133.841         133.869         133.898         133.927         133.957         133.988    
          134.021         134.057         134.096         134.140         134.191         134.245         134.304         134.366         134.428         134.491    
          134.553         134.612         134.666         134.708         134.743         134.773         134.796         134.808         134.790         134.801    
          134.823         134.847         134.871         134.896         134.921         134.944         134.965         134.983         135.000         135.014    
          135.027         135.039         135.049         135.054         135.046         135.052         135.060         135.065         135.058         135.062    
          135.072         135.083         135.093         135.103         135.112         135.120         135.128         135.135         135.141         135.148    
          135.153         135.157         135.161         135.165         135.168         135.171         135.172         135.169         135.169         135.173    
          135.173         135.170         135.170         135.174         135.171         133.706         133.718         133.735         133.756         133.779    
          133.804         133.831         133.859         133.888         133.918         133.948         133.980         134.013         134.049         134.089    
          134.133         134.184         134.239         134.297         134.358         134.418         134.479         134.538         134.594         134.646    
          134.690         134.726         134.757         134.781         134.793         134.775         134.785         134.806         134.816         134.798    
          134.811         134.833         134.859         134.885         134.911         134.935         134.957         134.976         134.993         135.008    
          135.021         135.034         135.043         135.049         135.041         135.047         135.056         135.067         135.077         135.087    
          135.097         135.105         135.114         135.121         135.129         135.135         135.141         135.147         135.152         135.156    
          135.159         135.163         135.165         135.167         135.167         133.719         133.732         133.749         133.770         133.794    
          133.821         133.849         133.879         133.909         133.941         133.973         134.007         134.044         134.085         134.131    
          134.180         134.234         134.291         134.350         134.409         134.467         134.523         134.576         134.625         134.669    
          134.707         134.739         134.768         134.790         134.803         134.784         134.797         134.820         134.847         134.875    
          134.901         134.927         134.950         134.970         134.987         135.002         135.016         135.028         135.033         135.025    
          135.031         135.039         135.045         135.038         135.043         135.052         135.063         135.073         135.083         135.092    
          135.100         135.108         135.116         135.123         135.130         135.136         135.141         135.146         135.151         135.155    
          135.158         135.161         135.163         135.164         133.732         133.744         133.762         133.785         133.811         133.840    
          133.870         133.901         133.934         133.968         134.003         134.042         134.084         134.129         134.178         134.230    
          134.286         134.344         134.400         134.455         134.508         134.560         134.606         134.648         134.685         134.720    
          134.751         134.776         134.790         134.770         134.782         134.804         134.816         134.797         134.811         134.835    
          134.865         134.893         134.919         134.943         134.962         134.970         134.958         134.968         134.980         134.987    
          134.978         134.985         134.996         135.002         134.994         135.000         135.010         135.016         135.008         135.014    
          135.023         135.029         135.022         135.027         135.038         135.049         135.060         135.070         135.079         135.088    
          135.096         135.104         135.111         135.118         135.125         135.131         135.137         135.142         135.147         135.151    
          135.155         135.158         135.161         135.163         133.742         133.756         133.776         133.801         133.830         133.862    
          133.895         133.929         133.965         134.003         134.043         134.084         134.128         134.175         134.227         134.281    
          134.336         134.391         134.443         134.494         134.543         134.588         134.628         134.665         134.699         134.733    
          134.764         134.790         134.805         134.785         134.797         134.820         134.833         134.813         134.829         134.855    
          134.885         134.909         134.920         134.905         134.918         134.934         134.944         134.931         134.941         134.955    
          134.965         134.953         134.963         134.978         134.994         135.009         135.022         135.035         135.046         135.057    
          135.067         135.076         135.085         135.093         135.100         135.107         135.114         135.121         135.127         135.133    
          135.138         135.143         135.148         135.153         135.155         133.754         133.770         133.793         133.822         133.855    
          133.890         133.927         133.966         134.005         134.045         134.085         134.128         134.174         134.223         134.276    
          134.329         134.380         134.430         134.479         134.526         134.570         134.609         134.646         134.680         134.712    
          134.746         134.779         134.806         134.823         134.802         134.816         134.840         134.854         134.835         134.849    
          134.872         134.885         134.868         134.881         134.901         134.914         134.898         134.911         134.932         134.955    
          134.974         134.991         135.006         135.020         135.033         135.044         135.055         135.065         135.074         135.082    
          135.090         135.097         135.104         135.111         135.117         135.123         135.129         135.135         135.141         135.144    
          133.768         133.787         133.815         133.850         133.888         133.929         133.970         134.009         134.048         134.087    
          134.128         134.172         134.220         134.269         134.320         134.369         134.417         134.463         134.509         134.552    
          134.591         134.627         134.661         134.694         134.729         134.764         134.798         134.834         134.868         134.900    
          134.928         134.952         134.972         134.988         135.004         135.018         135.031         135.042         135.053         135.063    
          135.072         135.080         135.087         135.094         135.101         135.108         135.114         135.120         135.126         135.131    
          133.787         133.811         133.848         133.892         133.936         133.977         134.015         134.052         134.090         134.129    
          134.171         134.216         134.263         134.310         134.356         134.402         134.446         134.491         134.533         134.572    
          134.610         134.645         134.679         134.715         134.751         134.788         134.826         134.862         134.896         134.926    
          134.950         134.969         134.986         135.002         135.016         135.029         135.040         135.051         135.061         135.070    
          135.078         135.085         135.092         135.098         135.106         135.112         135.116         133.813         133.852         133.902    
          133.947         133.986         134.022         134.058         134.094         134.131         134.171         134.213         134.256         134.300    
          134.343         134.386         134.429         134.472         134.514         134.556         134.595         134.631         134.667         134.705    
          134.743         134.780         134.821         134.859         134.893         134.924         134.948         134.969         134.986         135.001    
          135.015         135.027         135.038         135.048         135.060         135.069         135.077         135.084         135.090         135.094    
          133.865         133.921         133.963         133.999         134.032         134.065         134.099         134.134         134.171         134.210    
          134.250         134.290         134.330         134.370         134.410         134.452         134.493         134.543         134.585         134.623    
          134.659         134.698         134.738         134.777         134.818         134.857         134.893         134.924         134.948         134.968    
          134.985         135.001         135.015         135.026         135.036         135.042         133.954         133.985         134.014         134.043    
          134.072         134.104         134.136         134.171         134.207         134.243         134.280         134.316         134.354         134.391    
          134.435         134.464         134.008         134.031         134.053         134.079         134.107         134.138         134.170         134.204    
          134.238         134.270         134.302         134.340         134.366         134.046         134.061         134.083         134.109         134.138    
          134.170         134.203         134.234         134.262         134.282    
1
  HEAD IN LAYER   3 AT END OF TIME STEP   1 IN STRESS PERIOD    1
  ---------------------------------------------------------------------------

                1               2               3               4               5               6               7               8               9              10
               11              12              13              14              15              16              17              18              19              20
               21              22              23              24              25              26              27              28              29              30
               31              32              33              34              35              36              37              38              39              40
               41              42              43              44              45              46              47              48              49              50
               51              52              53              54              55              56              57              58              59              60
               61              62              63              64              65              66              67              68              69              70
               71              72              73              74              75              76              77              78              79              80
               81              82              83              84              85              86              87              88              89              90
               91              92              93              94              95              96              97              98              99             100
              101             102             103             104             105             106             107             108             109             110
              111             112             113             114             115             116             117             118             119             120
              121             122             123             124             125             126             127             128             129             130
              131             132             133             134             135             136             137             138             139             140
              141             142             143             144             145             146             147             148             149             150
              151             152             153             154             155             156             157             158             159             160
              161             162             163             164             165             166             167             168             169             170
              171             172             173             174             175             176             177             178             179             180
              181             182             183             184             185             186             187             188             189             190
              191             192             193             194             195             196             197             198             199             200
              201             202             203             204             205             206             207             208             209             210
              211             212             213             214             215             216             217             218             219             220
              221             222             223             224             225             226             227             228             229             230
              231             232             233             234             235             236             237             238             239             240
              241             242             243             244             245             246             247             248             249             250
              251             252             253             254             255             256             257             258             259             260
              261             262             263             264             265             266             267             268             269             270
              271             272             273             274             275             276             277             278             279             280
              281             282             283             284             285             286             287             288             289             290
              291             292             293             294             295             296             297             298             299             300
              301             302             303             304             305             306             307             308             309             310
              311             312             313             314             315             316             317             318             319             320
              321             322             323             324             325             326             327             328             329             330
              331             332             333             334             335             336             337             338             339             340
              341             342             343             344             345             346             347             348             349             350
              351             352             353             354             355             356             357             358             359             360
              361             362             363             364             365             366             367             368             369             370
              371             372             373             374             375             376             377             378             379             380
              381             382             383             384             385             386             387             388             389             390
              391             392             393             394             395             396             397             398             399             400
              401             402             403             404             405             406             407             408             409             410
              411             412             413             414             415             416             417             418             419             420
              421             422             423             424             425             426             427             428             429             430
              431             432             433             434             435             436             437             438             439             440
              441             442             443             444             445             446             447             448             449             450
              451             452             453             454             455             456             457             458             459             460
              461             462             463             464             465             466             467             468             469             470
              471             472             473             474             475             476             477             478             479             480
              481             482             483             484             485             486             487             488             489             490
              491             492             493             494             495             496             497             498             499             500
              501             502             503             504             505             506             507             508             509             510
              511             512             513             514             515             516             517             518             519             520
              521             522             523             524             525             526             527             528             529             530
              531             532             533             534             535             536             537             538             539             540
              541             542             543             544             545             546             547             548             549             550
              551             552             553             554             555             556             557             558             559             560
              561             562             563             564             565             566             567             568             569             570
              571             572             573             574             575             576             577             578             579             580
              581             582             583             584             585             586             587             588             589             590
              591             592             593             594             595             596             597             598             599             600
              601             602             603             604             605             606             607             608             609             610
              611             612             613             614             615             616             617             618             619             620
              621             622             623             624             625             626             627             628             629             630
              631             632             633             634             635             636             637             638             639             640
              641             642             643             644             645             646             647             648             649             650
              651             652             653             654             655             656             657             658             659             660
              661             662             663             664             665             666             667             668             669             670
              671             672             673             674             675             676             677             678             679             680
              681             682             683             684             685             686             687             688             689             690
              691             692             693             694             695             696             697             698             699             700
              701             702             703             704             705             706             707             708             709             710
              711             712             713             714             715             716             717             718             719             720
              721             722             723             724             725             726             727             728             729             730
              731             732             733             734             735             736             737             738             739             740
              741             742             743             744             745             746             747             748             749             750
              751             752             753             754             755             756             757             758             759             760
              761             762             763             764             765             766             767             768             769             770
              771             772             773             774             775             776             777             778             779             780
              781             782             783             784             785             786             787             788             789             790
              791             792             793             794             795             796             797             798             799             800
              801             802             803             804             805             806             807             808             809             810
              811             812             813             814             815             816             817             818             819             820
              821             822             823             824             825             826             827             828             829             830
              831             832             833             834             835             836             837             838             839             840
              841             842             843             844             845             846             847             848             849             850
              851             852             853             854             855             856             857             858             859             860
              861             862             863             864             865             866             867             868             869             870
              871             872             873             874             875             876             877             878             879             880
              881             882             883             884             885             886             887             888             889             890
              891             892             893             894             895             896             897             898             899             900
              901             902             903             904             905             906             907             908             909             910
              911             912             913             914             915             916             917             918             919             920
              921             922             923             924             925             926             927             928             929             930
              931             932             933             934             935             936             937             938             939             940
              941             942             943             944             945             946             947             948             949             950
              951             952             953             954             955             956             957             958             959             960
              961             962             963             964             965             966             967             968             969             970
              971             972             973             974             975             976             977             978             979             980
              981             982             983             984             985             986             987             988             989             990
              991             992             993             994             995             996             997             998             999            1000
             1001            1002            1003            1004            1005            1006            1007            1008            1009            1010
             1011            1012            1013            1014            1015            1016            1017            1018            1019            1020
             1021            1022            1023            1024            1025            1026            1027            1028            1029            1030
             1031            1032            1033            1034            1035            1036            1037            1038            1039            1040
             1041            1042            1043            1044            1045            1046            1047            1048            1049            1050
             1051            1052            1053            1054            1055            1056            1057            1058            1059            1060
             1061            1062            1063            1064            1065            1066            1067            1068            1069            1070
             1071            1072            1073            1074            1075            1076            1077            1078            1079            1080
             1081            1082            1083            1084            1085            1086            1087            1088            1089            1090
             1091            1092            1093            1094            1095            1096            1097            1098            1099            1100
             1101            1102            1103            1104            1105            1106            1107            1108            1109            1110
             1111            1112            1113            1114            1115            1116            1117            1118            1119            1120
             1121            1122            1123            1124            1125            1126            1127            1128            1129            1130
             1131            1132            1133            1134            1135            1136            1137            1138            1139            1140
             1141            1142            1143            1144            1145            1146            1147            1148            1149            1150
             1151            1152            1153            1154            1155            1156            1157            1158            1159            1160
             1161            1162            1163            1164            1165            1166            1167            1168            1169            1170
             1171            1172            1173            1174            1175            1176            1177            1178            1179            1180
             1181            1182            1183            1184            1185            1186            1187            1188            1189            1190
             1191            1192            1193            1194            1195            1196            1197            1198            1199            1200
             1201            1202            1203            1204            1205            1206            1207            1208            1209            1210
             1211            1212            1213            1214            1215            1216            1217            1218            1219            1220
             1221            1222            1223            1224            1225            1226            1227            1228            1229            1230
             1231            1232            1233            1234            1235            1236            1237            1238            1239            1240
             1241            1242            1243            1244            1245            1246            1247            1248            1249            1250
             1251            1252            1253            1254            1255            1256            1257            1258            1259            1260
             1261            1262            1263            1264            1265            1266            1267            1268            1269            1270
             1271            1272            1273            1274            1275            1276            1277            1278            1279            1280
             1281            1282            1283            1284            1285            1286            1287            1288            1289            1290
             1291            1292            1293            1294            1295            1296            1297            1298            1299            1300
             1301            1302            1303            1304            1305            1306            1307            1308            1309            1310
             1311            1312            1313            1314            1315            1316            1317            1318            1319            1320
             1321            1322            1323            1324            1325            1326            1327            1328            1329            1330
             1331            1332            1333            1334            1335            1336            1337            1338            1339            1340
             1341            1342            1343            1344            1345            1346            1347            1348            1349            1350
             1351            1352            1353            1354            1355            1356            1357            1358            1359            1360
             1361            1362            1363            1364            1365            1366            1367            1368            1369            1370
             1371            1372            1373            1374            1375            1376            1377            1378            1379            1380
             1381            1382            1383            1384            1385            1386            1387            1388            1389            1390
             1391            1392            1393            1394            1395            1396            1397            1398            1399            1400
             1401            1402            1403            1404            1405            1406            1407            1408            1409            1410
             1411            1412            1413            1414            1415            1416            1417            1418            1419            1420
             1421            1422            1423            1424            1425            1426            1427            1428            1429            1430
             1431            1432            1433            1434            1435            1436            1437            1438            1439            1440
             1441            1442            1443            1444            1445            1446            1447            1448            1449            1450
             1451            1452            1453            1454            1455            1456            1457            1458            1459            1460
             1461            1462            1463            1464            1465            1466            1467            1468            1469            1470
             1471            1472            1473            1474            1475            1476            1477            1478            1479            1480
             1481            1482            1483            1484            1485            1486            1487            1488            1489            1490
             1491            1492            1493            1494            1495            1496            1497            1498            1499            1500
             1501            1502            1503            1504            1505            1506            1507            1508            1509            1510
             1511            1512            1513            1514            1515            1516            1517            1518            1519            1520
             1521            1522            1523            1524            1525            1526            1527            1528            1529            1530
             1531            1532            1533            1534            1535            1536            1537            1538            1539            1540
             1541            1542            1543            1544            1545            1546            1547            1548            1549            1550
             1551            1552            1553            1554            1555            1556            1557            1558            1559            1560
             1561            1562            1563            1564            1565            1566            1567            1568            1569            1570
             1571            1572            1573            1574            1575            1576            1577            1578            1579            1580
             1581            1582            1583            1584            1585            1586            1587            1588            1589            1590
             1591            1592            1593            1594            1595            1596            1597            1598            1599            1600
             1601            1602            1603            1604            1605            1606            1607            1608            1609            1610
             1611            1612            1613            1614            1615            1616            1617            1618            1619            1620
             1621            1622            1623            1624            1625            1626            1627            1628            1629            1630
             1631            1632            1633            1634            1635            1636            1637            1638            1639            1640
             1641            1642            1643            1644            1645            1646            1647            1648            1649            1650
             1651            1652            1653            1654            1655            1656            1657            1658            1659            1660
             1661            1662            1663            1664            1665            1666            1667            1668            1669            1670
             1671            1672            1673            1674            1675            1676            1677            1678            1679            1680
             1681            1682            1683            1684            1685            1686            1687            1688            1689            1690
             1691            1692            1693            1694            1695            1696            1697            1698            1699            1700
             1701            1702            1703            1704            1705            1706            1707            1708            1709            1710
             1711            1712            1713            1714            1715            1716            1717            1718            1719            1720
             1721            1722            1723            1724            1725            1726            1727            1728            1729            1730
             1731            1732            1733            1734            1735            1736            1737            1738            1739            1740
             1741            1742            1743            1744            1745            1746            1747            1748            1749            1750
             1751            1752            1753            1754            1755            1756            1757            1758            1759            1760
             1761            1762            1763            1764            1765            1766            1767            1768            1769            1770
             1771            1772            1773            1774            1775            1776            1777            1778            1779            1780
             1781            1782            1783            1784            1785            1786            1787            1788            1789            1790
             1791            1792            1793            1794            1795            1796            1797            1798            1799            1800
             1801            1802            1803            1804            1805            1806            1807            1808            1809            1810
             1811            1812            1813            1814            1815            1816            1817            1818            1819            1820
             1821            1822            1823            1824            1825            1826            1827            1828            1829            1830
             1831            1832            1833            1834            1835            1836            1837            1838            1839            1840
             1841            1842            1843            1844            1845            1846            1847            1848            1849            1850
             1851            1852            1853            1854            1855            1856            1857            1858            1859            1860
             1861            1862            1863            1864            1865            1866            1867            1868            1869            1870
             1871            1872            1873            1874            1875            1876            1877            1878            1879            1880
             1881            1882            1883            1884            1885            1886            1887            1888            1889            1890
             1891            1892            1893            1894            1895            1896            1897            1898            1899            1900
             1901            1902            1903            1904            1905            1906            1907            1908            1909            1910
             1911            1912            1913            1914            1915            1916            1917            1918            1919            1920
             1921            1922            1923            1924            1925            1926            1927            1928            1929            1930
             1931            1932            1933            1934            1935            1936            1937            1938            1939            1940
             1941            1942            1943            1944            1945            1946            1947            1948            1949            1950
             1951            1952            1953            1954            1955            1956            1957            1958            1959            1960
             1961            1962            1963            1964            1965            1966            1967            1968            1969            1970
             1971            1972            1973            1974            1975            1976            1977            1978            1979            1980
             1981            1982            1983            1984            1985            1986            1987            1988            1989            1990
             1991            1992            1993            1994            1995            1996            1997            1998            1999            2000
             2001            2002            2003            2004            2005            2006            2007            2008            2009            2010
             2011            2012            2013            2014            2015            2016            2017            2018            2019            2020
             2021            2022            2023            2024            2025            2026            2027            2028            2029            2030
             2031            2032            2033            2034            2035            2036            2037            2038            2039            2040
             2041            2042            2043            2044            2045            2046            2047            2048            2049            2050
             2051            2052            2053            2054            2055            2056            2057            2058            2059            2060
             2061            2062            2063            2064            2065            2066            2067            2068            2069            2070
             2071            2072            2073            2074            2075            2076            2077            2078            2079            2080
             2081            2082            2083            2084            2085            2086            2087            2088            2089            2090
             2091            2092            2093            2094            2095            2096            2097            2098            2099            2100
             2101            2102            2103            2104            2105            2106            2107            2108            2109            2110
             2111            2112            2113            2114            2115            2116            2117            2118            2119            2120
             2121            2122            2123            2124            2125            2126            2127            2128            2129            2130
             2131            2132            2133            2134            2135            2136            2137            2138            2139            2140
             2141            2142            2143            2144            2145            2146            2147            2148            2149            2150
             2151            2152            2153            2154            2155            2156            2157            2158            2159            2160
             2161            2162            2163            2164            2165            2166            2167            2168            2169            2170
             2171            2172            2173            2174            2175            2176            2177            2178            2179            2180
             2181            2182            2183            2184            2185            2186            2187            2188            2189            2190
             2191            2192            2193            2194            2195            2196            2197            2198            2199            2200
             2201            2202            2203            2204            2205            2206            2207            2208            2209            2210
             2211            2212            2213            2214            2215            2216            2217            2218            2219            2220
             2221            2222            2223            2224            2225            2226            2227            2228            2229            2230
             2231            2232            2233            2234            2235            2236            2237            2238            2239            2240
             2241            2242            2243            2244            2245            2246            2247            2248            2249            2250
             2251            2252            2253            2254            2255            2256            2257            2258            2259            2260
             2261            2262            2263            2264            2265            2266            2267            2268            2269            2270
             2271            2272            2273            2274            2275            2276            2277            2278            2279            2280
             2281            2282            2283            2284            2285            2286            2287            2288            2289            2290
             2291            2292            2293            2294            2295            2296            2297            2298            2299            2300
             2301            2302            2303            2304            2305            2306            2307            2308            2309            2310
             2311            2312            2313            2314            2315            2316            2317            2318            2319            2320
             2321            2322            2323            2324            2325            2326            2327            2328            2329            2330
             2331            2332            2333            2334            2335            2336            2337            2338            2339            2340
             2341            2342            2343            2344            2345            2346            2347            2348            2349            2350
             2351            2352            2353            2354            2355            2356            2357            2358            2359            2360
             2361            2362            2363            2364            2365            2366            2367            2368            2369            2370
             2371            2372            2373            2374            2375            2376            2377            2378            2379            2380
             2381            2382            2383            2384            2385            2386            2387            2388            2389            2390
             2391            2392            2393            2394            2395            2396            2397            2398            2399            2400
             2401            2402            2403            2404            2405            2406            2407            2408            2409            2410
             2411            2412            2413            2414            2415            2416            2417            2418            2419            2420
             2421            2422            2423            2424            2425            2426            2427            2428            2429            2430
             2431            2432            2433            2434            2435            2436            2437            2438            2439            2440
             2441            2442            2443            2444            2445            2446            2447            2448            2449            2450
             2451            2452            2453            2454            2455            2456            2457            2458            2459            2460
             2461            2462            2463            2464            2465            2466            2467            2468            2469            2470
             2471            2472            2473            2474            2475            2476            2477            2478            2479            2480
             2481            2482            2483            2484            2485            2486            2487            2488            2489            2490
             2491            2492            2493            2494            2495            2496            2497            2498            2499            2500
             2501            2502            2503            2504            2505            2506            2507            2508            2509            2510
             2511            2512            2513            2514            2515            2516            2517            2518            2519            2520
             2521            2522            2523            2524            2525            2526            2527            2528            2529            2530
             2531            2532            2533            2534            2535            2536            2537            2538            2539            2540
             2541            2542            2543            2544            2545            2546            2547            2548            2549            2550
             2551            2552            2553            2554            2555            2556            2557            2558            2559            2560
             2561            2562            2563            2564            2565            2566            2567            2568            2569            2570
             2571            2572            2573            2574            2575            2576            2577            2578            2579            2580
             2581            2582            2583            2584            2585            2586            2587            2588            2589            2590
             2591            2592            2593            2594            2595            2596            2597            2598            2599            2600
             2601            2602            2603            2604            2605            2606            2607            2608            2609            2610
             2611            2612            2613            2614            2615            2616            2617            2618            2619            2620
             2621            2622            2623            2624            2625            2626            2627            2628            2629            2630
             2631            2632            2633            2634            2635            2636            2637            2638            2639            2640
             2641            2642            2643            2644            2645            2646            2647            2648            2649            2650
             2651            2652            2653            2654            2655            2656            2657            2658            2659            2660
             2661            2662            2663            2664            2665            2666            2667            2668            2669            2670
             2671            2672            2673            2674            2675            2676            2677            2678            2679            2680
             2681            2682            2683            2684            2685            2686            2687            2688            2689            2690
             2691            2692            2693            2694            2695            2696            2697            2698            2699            2700
             2701            2702            2703            2704            2705            2706            2707            2708            2709            2710
             2711            2712            2713            2714            2715            2716            2717            2718            2719            2720
             2721            2722            2723            2724            2725            2726            2727            2728            2729            2730
             2731            2732            2733            2734            2735            2736            2737            2738            2739            2740
             2741            2742            2743            2744            2745            2746            2747            2748            2749            2750
             2751            2752            2753            2754            2755            2756            2757            2758            2759            2760
             2761            2762            2763            2764            2765            2766            2767            2768            2769            2770
             2771            2772            2773            2774            2775            2776            2777            2778            2779            2780
             2781            2782            2783            2784            2785            2786            2787            2788            2789            2790
             2791            2792            2793            2794            2795            2796            2797            2798            2799            2800
             2801            2802            2803            2804            2805            2806            2807            2808            2809            2810
             2811            2812            2813            2814            2815            2816            2817            2818            2819            2820
             2821            2822            2823            2824            2825            2826            2827            2828            2829            2830
             2831            2832            2833            2834            2835            2836            2837            2838            2839            2840
             2841            2842            2843            2844            2845            2846            2847            2848            2849            2850
             2851            2852            2853            2854            2855            2856            2857            2858            2859            2860
             2861            2862            2863            2864            2865            2866            2867            2868            2869            2870
             2871            2872            2873            2874            2875            2876            2877            2878            2879            2880
             2881            2882            2883            2884            2885            2886            2887            2888            2889            2890
             2891            2892            2893            2894            2895            2896            2897            2898            2899            2900
             2901            2902            2903            2904            2905            2906            2907            2908            2909            2910
             2911            2912            2913            2914            2915            2916            2917            2918            2919            2920
             2921            2922            2923            2924            2925            2926            2927            2928            2929            2930
             2931            2932            2933            2934            2935            2936            2937            2938            2939            2940
             2941            2942            2943            2944            2945            2946            2947            2948            2949            2950
             2951            2952            2953            2954            2955            2956            2957            2958            2959            2960
             2961            2962            2963            2964            2965            2966            2967            2968            2969            2970
             2971            2972            2973            2974            2975            2976            2977            2978            2979            2980
             2981            2982            2983            2984            2985            2986            2987            2988            2989            2990
             2991            2992            2993            2994            2995            2996            2997            2998            2999            3000
             3001            3002            3003            3004            3005            3006            3007            3008            3009            3010
             3011            3012            3013            3014            3015            3016            3017            3018            3019            3020
             3021            3022            3023            3024            3025            3026            3027            3028            3029            3030
             3031            3032            3033            3034            3035            3036            3037            3038            3039            3040
             3041            3042            3043            3044            3045            3046            3047            3048            3049            3050
             3051            3052            3053            3054            3055            3056            3057            3058            3059            3060
             3061            3062            3063            3064            3065            3066            3067            3068            3069            3070
             3071            3072            3073            3074            3075            3076            3077            3078            3079            3080
             3081            3082            3083            3084            3085            3086            3087            3088            3089            3090
             3091            3092            3093            3094            3095            3096            3097            3098            3099            3100
             3101            3102            3103            3104            3105            3106            3107            3108            3109            3110
             3111            3112            3113            3114            3115            3116            3117            3118            3119            3120
             3121            3122            3123            3124            3125            3126            3127            3128            3129            3130
             3131            3132            3133            3134            3135
 ................................................................................................................................................................
   1      133.598         133.598         133.597         133.597         133.601         133.604         133.600         133.604         133.612         133.632    
          133.661         133.697         133.741         133.789         133.841         133.896         133.953         134.009         134.066         134.119    
          134.168         134.208         134.234         133.592         133.594         133.595         133.595         133.596         133.599         133.603    
          133.599         133.601         133.608         133.614         133.606         133.613         133.628         133.655         133.691         133.734    
          133.782         133.834         133.889         133.946         134.003         134.060         134.115         134.166         134.211         134.249    
          134.280         133.584         133.588         133.590         133.592         133.592         133.594         133.598         133.605         133.612    
          133.605         133.610         133.620         133.629         133.618         133.627         133.644         133.656         133.640         133.654    
          133.681         133.722         133.769         133.822         133.877         133.935         133.994         134.051         134.108         134.163    
          134.213         134.258         134.298         134.332         133.576         133.580         133.584         133.587         133.589         133.590    
          133.593         133.597         133.606         133.620         133.637         133.651         133.636         133.647         133.667         133.681    
          133.662         133.679         133.710         133.756         133.808         133.864         133.922         133.981         134.040         134.099    
          134.157         134.212         134.263         134.311         134.354         134.391         133.568         133.572         133.576         133.580    
          133.584         133.586         133.589         133.592         133.597         133.606         133.619         133.638         133.660         133.675    
          133.659         133.672         133.694         133.711         133.690         133.709         133.743         133.794         133.850         133.908    
          133.968         134.029         134.089         134.149         134.208         134.265         134.319         134.371         134.418         134.461    
          133.559         133.563         133.568         133.573         133.577         133.582         133.585         133.589         133.594         133.600    
          133.608         133.620         133.638         133.663         133.688         133.706         133.688         133.703         133.728         133.747    
          133.724         133.746         133.784         133.838         133.896         133.956         134.016         134.077         134.140         134.202    
          134.263         134.324         134.383         134.440         134.493         134.543         133.550         133.554         133.560         133.565    
          133.570         133.576         133.581         133.586         133.591         133.596         133.603         133.613         133.625         133.642    
          133.665         133.695         133.724         133.745         133.725         133.743         133.769         133.790         133.767         133.791    
          133.831         133.887         133.945         134.004         134.065         134.129         134.193         134.259         134.325         134.390    
          134.456         134.520         134.583         134.642         133.541         133.546         133.551         133.557         133.563         133.569    
          133.575         133.581         133.587         133.593         133.600         133.609         133.619         133.632         133.649         133.671    
          133.700         133.736         133.768         133.791         133.771         133.790         133.818         133.839         133.816         133.841    
          133.881         133.936         133.993         134.053         134.116         134.182         134.251         134.321         134.394         134.467    
          134.541         134.616         134.692         134.767         133.534         133.538         133.543         133.548         133.554         133.561    
          133.567         133.574         133.581         133.589         133.597         133.605         133.615         133.626         133.640         133.658    
          133.680         133.708         133.742         133.783         133.818         133.841         133.820         133.840         133.868         133.889    
          133.867         133.888         133.919         133.942         133.916         133.938         133.972         133.996         133.967         133.994    
          134.040         134.102         134.169         134.240         134.315         134.392         134.472         134.554         134.640         134.731    
          134.829         134.954         135.059         135.151         135.234         135.310         135.379         135.443         135.500         135.551    
          135.597         135.638         135.673         135.703         135.727         135.746         135.757         135.761         135.755         135.740    
          135.713         135.679         135.643         135.610         135.580         135.553         135.529         135.508         135.489         135.472    
          135.457         135.443         135.431         135.420         135.411         135.403         135.398         133.533         133.536         133.540    
          133.546         133.552         133.559         133.567         133.575         133.583         133.591         133.601         133.611         133.622    
          133.635         133.650         133.668         133.691         133.718         133.751         133.788         133.831         133.876         133.924    
          133.964         133.991         133.963         133.986         134.021         134.044         134.016         134.039         134.078         134.105    
          134.070         134.102         134.155         134.227         134.304         134.385         134.469         134.558         134.651         134.749    
          134.850         134.955         135.053         135.142         135.223         135.298         135.366         135.428         135.485         135.535    
          135.581         135.621         135.656         135.685         135.709         135.727         135.738         135.741         135.736         135.721    
          135.696         135.665         135.632         135.601         135.572         135.547         135.524         135.503         135.485         135.469    
          135.454         135.440         135.428         135.418         135.408         135.400         135.392         135.385         133.531         133.534    
          133.538         133.544         133.551         133.559         133.567         133.575         133.585         133.595         133.605         133.616    
          133.629         133.643         133.660         133.679         133.701         133.728         133.759         133.794         133.833         133.876    
          133.921         133.969         134.021         134.065         134.096         134.062         134.092         134.142         134.213         134.290    
          134.373         134.460         134.552         134.649         134.750         134.849         134.946         135.039         135.125         135.204    
          135.276         135.342         135.403         135.458         135.507         135.552         135.591         135.625         135.654         135.677    
          135.694         135.704         135.708         135.703         135.689         135.668         135.641         135.612         135.584         135.558    
          135.535         135.514         135.495         135.478         135.462         135.448         135.435         135.424         135.413         135.403    
          135.394         135.386         135.378         135.370         133.530         133.532         133.537         133.543         133.550         133.558    
          133.567         133.577         133.587         133.598         133.610         133.622         133.636         133.651         133.669         133.689    
          133.711         133.737         133.767         133.801         133.837         133.877         133.920         133.965         134.015         134.058    
          134.088         134.057         134.081         134.120         134.147         134.113         134.145         134.199         134.274         134.356    
          134.444         134.537         134.635         134.738         134.836         134.929         135.018         135.100         135.176         135.246    
          135.310         135.369         135.422         135.470         135.513         135.551         135.584         135.612         135.634         135.650    
          135.661         135.664         135.660         135.649         135.631         135.609         135.585         135.562         135.539         135.519    
          135.500         135.483         135.467         135.453         135.440         135.428         135.416         135.406         135.396         135.387    
          135.378         135.370         135.362         135.354         133.528         133.531         133.535         133.542         133.550         133.558    
          133.568         133.579         133.590         133.602         133.614         133.628         133.643         133.659         133.677         133.698    
          133.720         133.746         133.775         133.807         133.841         133.879         133.920         133.963         134.011         134.064    
          134.110         134.140         134.108         134.134         134.175         134.203         134.167         134.200         134.257         134.337    
          134.423         134.516         134.614         134.716         134.813         134.903         134.990         135.070         135.143         135.210    
          135.272         135.328         135.380         135.427         135.469         135.505         135.537         135.563         135.585         135.601    
          135.611         135.615         135.613         135.605         135.591         135.573         135.554         135.535         135.516         135.499    
          135.483         135.468         135.454         135.442         135.430         135.418         135.407         135.397         135.388         135.378    
          135.369         135.361         135.353         135.345         135.338         133.527         133.530         133.534         133.541         133.549    
          133.559         133.569         133.580         133.592         133.605         133.619         133.634         133.650         133.667         133.685    
          133.706         133.729         133.754         133.782         133.813         133.846         133.882         133.921         133.963         134.008    
          134.058         134.114         134.163         134.194         134.160         134.187         134.231         134.260         134.222         134.256    
          134.316         134.400         134.490         134.587         134.688         134.784         134.873         134.958         135.035         135.106    
          135.171         135.230         135.285         135.335         135.380         135.421         135.456         135.487         135.512         135.533    
          135.548         135.559         135.564         135.564         135.558         135.548         135.535         135.521         135.506         135.491    
          135.476         135.463         135.451         135.439         135.428         135.417         135.407         135.397         135.387         135.377    
          135.368         135.359         135.351         135.344         135.337         135.330         135.323         133.526         133.529         133.534    
          133.541         133.550         133.560         133.571         133.582         133.595         133.609         133.624         133.639         133.655    
          133.673         133.692         133.713         133.736         133.761         133.788         133.818         133.850         133.885         133.922    
          133.963         134.006         134.054         134.107         134.165         134.215         134.249         134.212         134.239         134.286    
          134.317         134.275         134.311         134.374         134.461         134.556         134.656         134.752         134.839         134.922    
          134.998         135.067         135.130         135.187         135.240         135.289         135.332         135.371         135.406         135.435    
          135.460         135.480         135.496         135.506         135.512         135.514         135.511         135.505         135.496         135.486    
          135.475         135.463         135.452         135.442         135.431         135.421         135.412         135.403         135.393         135.384    
          135.375         135.365         135.356         135.348         135.341         135.334         135.328         135.322         135.317         135.312    
          133.526         133.528         133.534         133.541         133.550         133.560         133.572         133.585         133.598         133.612    
          133.628         133.644         133.661         133.679         133.698         133.719         133.742         133.766         133.793         133.822    
          133.854         133.888         133.924         133.963         134.005         134.051         134.101         134.155         134.215         134.268    
          134.302         134.263         134.291         134.341         134.373         134.329         134.366         134.433         134.525         134.623    
          134.719         134.805         134.885         134.959         135.027         135.088         135.144         135.195         135.242         135.285    
          135.323         135.356         135.385         135.409         135.429         135.444         135.455         135.462         135.465         135.465    
          135.462         135.457         135.451         135.443         135.435         135.427         135.419         135.411         135.403         135.394    
          135.386         135.378         135.370         135.360         135.351         135.343         135.336         135.330         135.324         135.319    
          135.314         135.311         135.308         133.526         133.528         133.534         133.541         133.551         133.561         133.573    
          133.587         133.601         133.616         133.631         133.648         133.665         133.683         133.703         133.724         133.747    
          133.771         133.798         133.826         133.857         133.891         133.926         133.964         134.004         134.048         134.096    
          134.147         134.204         134.265         134.320         134.356         134.315         134.344         134.397         134.431         134.384    
          134.423         134.495         134.591         134.685         134.771         134.849         134.921         134.987         135.047         135.102    
          135.152         135.197         135.239         135.275         135.308         135.336         135.359         135.379         135.395         135.407    
          135.415         135.419         135.422         135.422         135.420         135.416         135.412         135.407         135.401         135.395    
          135.389         135.383         135.376         135.369         135.362         135.354         135.345         135.337         135.330         135.324    
          135.319         135.314         135.310         135.306         135.303         135.302         133.526         133.529         133.534         133.542    
          133.552         133.563         133.575         133.588         133.603         133.618         133.635         133.652         133.669         133.687    
          133.707         133.728         133.751         133.775         133.801         133.830         133.860         133.893         133.928         133.965    
          134.004         134.047         134.092         134.142         134.195         134.253         134.317         134.374         134.412         134.366    
          134.404         134.470         134.560         134.653         134.738         134.815         134.884         134.949         135.008         135.062    
          135.111         135.155         135.195         135.231         135.262         135.289         135.313         135.333         135.349         135.361    
          135.371         135.377         135.381         135.383         135.384         135.383         135.382         135.379         135.375         135.371    
          135.367         135.362         135.357         135.351         135.344         135.336         135.329         135.322         135.316         135.312    
          135.307         135.304         135.300         135.298         135.296         135.295         133.527         133.530         133.535         133.543    
          133.553         133.564         133.577         133.590         133.605         133.621         133.637         133.654         133.672         133.691    
          133.710         133.731         133.754         133.778         133.805         133.833         133.863         133.895         133.929         133.966    
          134.004         134.046         134.090         134.138         134.189         134.244         134.304         134.358         134.394         134.352    
          134.387         134.447         134.532         134.621         134.706         134.782         134.850         134.913         134.971         135.023    
          135.072         135.115         135.154         135.188         135.219         135.246         135.269         135.289         135.306         135.319    
          135.330         135.338         135.344         135.348         135.350         135.352         135.352         135.351         135.350         135.348    
          135.345         135.341         135.336         135.331         135.325         135.319         135.313         135.308         135.304         135.300    
          135.297         135.294         135.292         135.290         135.289         135.288         133.528         133.531         133.537         133.545    
          133.554         133.566         133.578         133.592         133.607         133.622         133.639         133.657         133.674         133.693    
          133.713         133.734         133.756         133.781         133.807         133.835         133.865         133.897         133.931         133.967    
          134.005         134.046         134.089         134.135         134.185         134.238         134.295         134.345         134.378         134.342    
          134.369         134.416         134.447         134.405         134.441         134.506         134.592         134.675         134.751         134.818    
          134.880         134.937         134.988         135.035         135.077         135.115         135.149         135.179         135.206         135.229    
          135.249         135.266         135.280         135.292         135.302         135.309         135.314         135.318         135.322         135.324    
          135.325         135.325         135.324         135.323         135.320         135.316         135.312         135.308         135.303         135.298    
          135.295         135.292         135.289         135.287         135.285         135.284         135.282         135.281         135.281         133.528    
          133.533         133.539         133.547         133.557         133.568         133.580         133.593         133.608         133.624         133.641    
          133.658         133.676         133.695         133.715         133.736         133.758         133.783         133.809         133.837         133.867    
          133.898         133.932         133.967         134.005         134.046         134.088         134.134         134.182         134.233         134.287    
          134.346         134.396         134.431         134.390         134.424         134.483         134.563         134.644         134.720         134.788    
          134.849         134.905         134.955         135.001         135.042         135.079         135.112         135.142         135.168         135.191    
          135.211         135.229         135.244         135.257         135.268         135.276         135.283         135.289         135.293         135.297    
          135.299         135.301         135.302         135.301         135.299         135.297         135.294         135.292         135.289         135.286    
          135.283         135.281         135.280         135.278         135.277         135.276         135.275         135.274         135.274         133.536    
          133.542         133.550         133.559         133.570         133.582         133.595         133.609         133.625         133.641         133.659    
          133.677         133.696         133.716         133.737         133.760         133.784         133.810         133.838         133.868         133.899    
          133.932         133.968         134.005         134.045         134.087         134.132         134.178         134.228         134.279         134.334    
          134.382         134.414         134.376         134.407         134.462         134.537         134.615         134.690         134.759         134.820    
          134.876         134.925         134.968         135.008         135.044         135.077         135.107         135.133         135.156         135.177    
          135.196         135.212         135.225         135.237         135.246         135.255         135.261         135.267         135.272         135.276    
          135.279         135.281         135.282         135.282         135.281         135.280         135.279         135.277         135.276         135.274    
          135.273         135.272         135.270         135.269         135.268         135.268         135.267         135.267         133.547         133.554    
          133.563         133.573         133.584         133.597         133.611         133.626         133.642         133.659         133.677         133.696    
          133.716         133.738         133.761         133.785         133.811         133.839         133.868         133.899         133.932         133.967    
          134.005         134.044         134.085         134.129         134.174         134.222         134.272         134.314         134.338         134.308    
          134.334         134.368         134.398         134.362         134.392         134.442         134.512         134.587         134.663         134.732    
          134.793         134.848         134.897         134.939         134.978         135.013         135.028         134.999         135.014         135.046    
          135.058         135.031         135.047         135.074         135.101         135.124         135.146         135.165         135.182         135.196    
          135.209         135.220         135.229         135.237         135.244         135.250         135.255         135.259         135.262         135.264    
          135.266         135.267         135.268         135.268         135.268         135.267         135.266         135.265         135.264         135.263    
          135.262         135.261         135.261         135.260         135.260         133.559         133.567         133.576         133.587         133.599    
          133.612         133.626         133.642         133.659         133.677         133.696         133.716         133.738         133.761         133.785    
          133.811         133.839         133.868         133.899         133.932         133.966         134.003         134.041         134.082         134.125    
          134.169         134.215         134.263         134.303         134.328         134.300         134.322         134.356         134.384         134.351    
          134.375         134.415         134.440         134.406         134.435         134.490         134.563         134.638         134.706         134.768    
          134.823         134.870         134.912         134.948         134.964         134.936         134.952         134.983         135.000         134.969    
          134.986         135.016         135.032         135.002         135.018         135.047         135.057         135.033         135.046         135.072    
          135.096         135.117         135.137         135.154         135.170         135.184         135.196         135.206         135.215         135.223    
          135.230         135.236         135.241         135.245         135.248         135.251         135.254         135.255         135.257         135.257    
          135.258         135.258         135.257         135.257         135.256         135.255         135.255         135.254         135.254         135.254    
          133.573         133.581         133.590         133.601         133.613         133.627         133.643         133.659         133.677         133.696    
          133.716         133.737         133.760         133.785         133.811         133.839         133.868         133.898         133.930         133.964    
          134.000         134.038         134.077         134.119         134.162         134.207         134.254         134.302         134.354         134.399    
          134.428         134.395         134.420         134.463         134.492         134.455         134.484         134.532         134.564         134.523    
          134.554         134.606         134.637         134.596         134.626         134.675         134.702         134.665         134.692         134.737    
          134.763         134.726         134.752         134.794         134.816         134.783         134.805         134.843         134.861         134.831    
          134.850         134.885         134.901         134.873         134.890         134.922         134.939         134.911         134.926         134.956    
          134.973         134.944         134.961         134.989         135.005         134.977         134.992         135.019         135.032         135.007    
          135.021         135.045         135.069         135.091         135.111         135.129         135.146         135.160         135.174         135.185    
          135.195         135.204         135.212         135.219         135.225         135.230         135.233         135.237         135.240         135.242    
          135.244         135.246         135.248         135.249         135.249         135.249         135.249         135.248         135.248         135.247    
          135.247         135.247         133.586         133.595         133.604         133.616         133.629         133.643         133.659         133.676    
          133.695         133.715         133.736         133.759         133.783         133.810         133.837         133.866         133.896         133.928    
          133.961         133.996         134.033         134.071         134.112         134.154         134.197         134.243         134.291         134.341    
          134.397         134.458         134.526         134.596         134.663         134.725         134.779         134.825         134.866         134.903    
          134.933         134.950         134.926         134.939         134.965         134.980         134.955         134.968         134.994         135.008    
          134.983         134.996         135.021         135.031         135.009         135.022         135.044         135.067         135.087         135.106    
          135.123         135.138         135.152         135.164         135.176         135.186         135.195         135.203         135.210         135.215    
          135.219         135.223         135.226         135.229         135.232         135.235         135.238         135.240         135.241         135.241    
          135.241         135.241         135.241         135.241         135.240         135.240         133.600         133.609         133.619         133.631    
          133.645         133.660         133.676         133.694         133.713         133.735         133.757         133.782         133.808         133.835    
          133.863         133.893         133.924         133.956         133.990         134.027         134.064         134.103         134.143         134.186    
          134.231         134.278         134.329         134.384         134.444         134.511         134.580         134.646         134.707         134.762    
          134.807         134.848         134.884         134.918         134.947         134.972         134.986         134.963         134.976         134.998    
          135.009         134.989         135.000         135.022         135.045         135.065         135.084         135.102         135.117         135.132    
          135.145         135.156         135.167         135.177         135.186         135.194         135.201         135.206         135.210         135.214    
          135.217         135.220         135.223         135.227         135.229         135.231         135.232         135.233         135.233         135.234    
          135.234         135.234         135.234         133.615         133.624         133.635         133.647         133.661         133.676         133.693    
          133.712         133.733         133.755         133.779         133.805         133.832         133.860         133.889         133.920         133.951    
          133.984         134.019         134.055         134.093         134.132         134.173         134.217         134.264         134.315         134.370    
          134.430         134.496         134.565         134.631         134.692         134.746         134.792         134.832         134.868         134.901    
          134.927         134.939         134.920         134.932         134.953         134.965         134.945         134.957         134.979         135.002    
          135.024         135.045         135.064         135.082         135.098         135.112         135.125         135.137         135.148         135.159    
          135.170         135.179         135.186         135.192         135.197         135.201         135.205         135.208         135.212         135.216    
          135.219         135.222         135.223         135.225         135.226         135.226         135.227         135.227         135.227         133.630    
          133.639         133.650         133.663         133.677         133.693         133.711         133.731         133.753         133.777         133.802    
          133.828         133.856         133.885         133.914         133.945         133.977         134.011         134.046         134.082         134.120    
          134.159         134.201         134.249         134.300         134.355         134.415         134.481         134.550         134.617         134.677    
          134.731         134.778         134.819         134.855         134.887         134.911         134.924         134.906         134.916         134.936    
          134.947         134.928         134.940         134.961         134.984         135.005         135.026         135.046         135.064         135.080    
          135.094         135.107         135.119         135.130         135.141         135.152         135.162         135.171         135.178         135.184    
          135.188         135.193         135.197         135.201         135.205         135.209         135.212         135.214         135.216         135.218    
          135.219         135.219         135.220         135.220         133.645         133.655         133.666         133.679         133.694         133.711    
          133.730         133.751         133.774         133.799         133.825         133.852         133.880         133.909         133.939         133.970    
          134.002         134.035         134.070         134.107         134.145         134.186         134.232         134.283         134.338         134.398    
          134.464         134.533         134.600         134.662         134.716         134.763         134.806         134.843         134.874         134.900    
          134.921         134.932         134.914         134.925         134.945         134.967         134.988         135.009         135.029         135.047    
          135.063         135.078         135.091         135.102         135.113         135.123         135.133         135.144         135.154         135.163    
          135.170         135.176         135.181         135.185         135.190         135.194         135.199         135.202         135.205         135.208    
          135.209         135.211         135.212         135.212         135.212         133.661         133.671         133.682         133.696         133.712    
          133.729         133.749         133.772         133.796         133.821         133.847         133.875         133.903         133.932         133.962    
          133.993         134.025         134.058         134.093         134.130         134.171         134.215         134.264         134.319         134.378    
          134.443         134.514         134.584         134.646         134.700         134.747         134.792         134.831         134.862         134.887    
          134.907         134.917         134.900         134.911         134.929         134.950         134.972         134.993         135.013         135.032    
          135.049         135.063         135.076         135.088         135.098         135.108         135.118         135.128         135.138         135.148    
          135.156         135.163         135.169         135.174         135.179         135.184         135.189         135.193         135.196         135.199    
          135.201         135.203         135.204         135.205         135.205         133.677         133.687         133.699         133.713         133.730    
          133.749         133.770         133.793         133.817         133.843         133.870         133.897         133.926         133.954         133.984    
          134.015         134.046         134.080         134.116         134.155         134.198         134.247         134.300         134.358         134.422    
          134.493         134.564         134.627         134.680         134.730         134.776         134.816         134.847         134.871         134.892    
          134.902         134.884         134.895         134.914         134.935         134.956         134.977         134.998         135.018         135.035    
          135.050         135.063         135.074         135.085         135.095         135.105         135.115         135.125         135.134         135.143    
          135.151         135.157         135.163         135.169         135.174         135.179         135.183         135.187         135.190         135.193    
          135.195         135.197         135.198         135.198         133.694         133.704         133.717         133.732         133.749         133.769    
          133.791         133.814         133.839         133.865         133.892         133.920         133.948         133.976         134.006         134.036    
          134.068         134.103         134.141         134.183         134.230         134.282         134.339         134.402         134.471         134.541    
          134.604         134.658         134.711         134.757         134.795         134.828         134.853         134.874         134.885         134.866    
          134.877         134.897         134.919         134.941         134.963         134.984         135.003         135.021         135.037         135.051    
          135.063         135.074         135.084         135.094         135.103         135.113         135.122         135.131         135.139         135.147    
          135.151         135.143         135.146         135.154         135.157         135.149         135.152         135.160         135.163         135.156    
          135.158         135.166         135.168         135.161         135.164         135.171         135.173         135.167         135.169         135.176    
          135.178         135.172         135.173         135.180         135.182         135.176         135.178         135.183         135.185         135.180    
          135.181         135.186         135.187         135.183         135.184         135.188         135.190         135.191         135.192         133.711    
          133.722         133.736         133.751         133.769         133.790         133.812         133.836         133.861         133.888         133.914    
          133.942         133.969         133.998         134.027         134.058         134.092         134.130         134.171         134.217         134.268    
          134.324         134.386         134.451         134.518         134.580         134.632         134.686         134.733         134.773         134.805    
          134.832         134.854         134.865         134.845         134.856         134.879         134.903         134.927         134.950         134.971    
          134.991         135.010         135.026         135.040         135.052         135.063         135.074         135.084         135.093         135.103    
          135.107         135.099         135.103         135.112         135.116         135.108         135.112         135.122         135.125         135.117    
          135.120         135.130         135.133         135.125         135.129         135.137         135.141         135.133         135.136         135.144    
          135.150         135.156         135.162         135.167         135.172         135.174         135.169         135.170         135.176         135.177    
          135.172         135.174         135.179         135.181         135.176         135.177         135.182         135.183         135.178         135.180    
          135.183         135.184         135.185         133.730         133.741         133.755         133.771         133.790         133.811         133.834    
          133.858         133.884         133.910         133.937         133.964         133.991         134.020         134.050         134.084         134.121    
          134.162         134.208         134.258         134.314         134.374         134.435         134.496         134.556         134.608         134.661    
          134.709         134.748         134.782         134.809         134.820         134.798         134.810         134.833         134.844         134.824    
          134.834         134.859         134.887         134.913         134.938         134.960         134.981         135.000         135.017         135.031    
          135.043         135.055         135.066         135.075         135.080         135.072         135.077         135.085         135.089         135.082    
          135.086         135.094         135.098         135.091         135.095         135.104         135.112         135.121         135.128         135.135    
          135.142         135.148         135.154         135.159         135.164         135.168         135.171         135.175         135.176         135.172    
          135.173         135.177         135.178         135.174         135.175         135.178         135.180         133.749         133.760         133.774    
          133.791         133.811         133.832         133.855         133.880         133.906         133.932         133.959         133.986         134.014    
          134.044         134.078         134.115         134.156         134.201         134.253         134.309         134.366         134.423         134.478    
          134.533         134.587         134.637         134.684         134.725         134.760         134.786         134.798         134.778         134.790    
          134.813         134.839         134.870         134.900         134.926         134.950         134.971         134.991         135.009         135.023    
          135.036         135.048         135.058         135.063         135.055         135.060         135.068         135.073         135.066         135.070    
          135.079         135.088         135.097         135.105         135.114         135.121         135.128         135.135         135.141         135.147    
          135.152         135.157         135.161         135.165         135.168         135.171         135.172         135.169         135.169         135.173    
          135.174         135.170         135.171         135.174         135.171         133.768         133.780         133.794         133.812         133.832    
          133.854         133.877         133.903         133.928         133.955         133.982         134.010         134.040         134.073         134.110    
          134.152         134.198         134.249         134.303         134.358         134.414         134.467         134.519         134.568         134.616    
          134.661         134.702         134.738         134.766         134.780         134.759         134.769         134.793         134.803         134.783    
          134.796         134.822         134.854         134.886         134.914         134.939         134.962         134.983         135.000         135.016    
          135.029         135.042         135.052         135.057         135.049         135.054         135.064         135.074         135.083         135.091    
          135.100         135.108         135.115         135.122         135.129         135.135         135.141         135.146         135.151         135.155    
          135.159         135.163         135.165         135.167         135.167         133.787         133.799         133.814         133.832         133.853    
          133.876         133.900         133.925         133.952         133.978         134.006         134.037         134.070         134.107         134.149    
          134.195         134.245         134.298         134.352         134.405         134.456         134.506         134.553         134.598         134.641    
          134.681         134.717         134.749         134.773         134.787         134.767         134.780         134.807         134.840         134.872    
          134.902         134.929         134.953         134.974         134.992         135.008         135.023         135.034         135.040         135.031    
          135.037         135.046         135.051         135.044         135.049         135.058         135.069         135.078         135.087         135.095    
          135.102         135.110         135.117         135.123         135.129         135.135         135.141         135.146         135.150         135.155    
          135.158         135.161         135.163         135.164         133.806         133.819         133.835         133.854         133.875         133.899    
          133.924         133.949         133.976         134.005         134.035         134.068         134.105         134.146         134.192         134.241    
          134.293         134.345         134.396         134.446         134.493         134.539         134.581         134.622         134.661         134.697    
          134.731         134.758         134.773         134.753         134.765         134.790         134.803         134.782         134.799         134.827    
          134.861         134.892         134.920         134.945         134.964         134.973         134.960         134.970         134.983         134.991    
          134.980         134.987         135.000         135.007         134.997         135.004         135.015         135.021         135.012         135.018    
          135.028         135.034         135.025         135.031         135.042         135.054         135.064         135.074         135.083         135.091    
          135.098         135.105         135.112         135.119         135.125         135.131         135.136         135.142         135.146         135.151    
          135.155         135.158         135.161         135.163         133.826         133.840         133.857         133.877         133.899         133.923    
          133.949         133.976         134.004         134.034         134.067         134.104         134.145         134.189         134.237         134.287    
          134.338         134.387         134.435         134.481         134.524         134.565         134.604         134.642         134.678         134.714    
          134.749         134.776         134.794         134.773         134.787         134.812         134.826         134.806         134.823         134.851    
          134.883         134.908         134.920         134.903         134.917         134.934         134.944         134.931         134.940         134.956    
          134.965         134.953         134.962         134.978         134.996         135.011         135.025         135.038         135.050         135.061    
          135.070         135.079         135.087         135.095         135.102         135.108         135.115         135.121         135.127         135.132    
          135.138         135.143         135.148         135.153         135.155         133.847         133.862         133.881         133.902         133.926    
          133.951         133.977         134.005         134.035         134.068         134.103         134.143         134.186         134.233         134.282    
          134.331         134.378         134.423         134.467         134.509         134.549         134.588         134.625         134.661         134.697    
          134.735         134.772         134.801         134.819         134.798         134.814         134.838         134.852         134.833         134.848    
          134.870         134.883         134.866         134.880         134.899         134.913         134.897         134.909         134.931         134.953    
          134.973         134.991         135.007         135.021         135.034         135.046         135.057         135.068         135.076         135.084    
          135.092         135.098         135.105         135.111         135.117         135.123         135.129         135.134         135.141         135.144    
          133.871         133.888         133.908         133.930         133.955         133.981         134.009         134.038         134.069         134.104    
          134.141         134.183         134.229         134.276         134.323         134.367         134.410         134.453         134.494         134.534    
          134.572         134.609         134.646         134.682         134.721         134.761         134.798         134.834         134.868         134.899    
          134.926         134.949         134.970         134.988         135.004         135.018         135.031         135.043         135.055         135.065    
          135.074         135.082         135.089         135.096         135.102         135.109         135.115         135.120         135.126         135.130    
          133.898         133.916         133.938         133.962         133.988         134.014         134.042         134.073         134.105         134.141    
          134.181         134.224         134.270         134.314         134.356         134.397         134.438         134.477         134.517         134.556    
          134.594         134.632         134.670         134.710         134.751         134.790         134.828         134.864         134.896         134.924    
          134.947         134.967         134.985         135.001         135.016         135.029         135.041         135.052         135.063         135.072    
          135.080         135.087         135.093         135.099         135.107         135.112         135.116         133.928         133.949         133.972    
          133.997         134.022         134.049         134.077         134.108         134.142         134.179         134.220         134.263         134.304    
          134.344         134.383         134.422         134.460         134.500         134.542         134.582         134.620         134.660         134.702    
          134.744         134.784         134.824         134.861         134.894         134.922         134.946         134.966         134.984         135.000    
          135.014         135.027         135.038         135.048         135.061         135.071         135.079         135.086         135.091         135.095    
          133.964         133.986         134.008         134.031         134.056         134.082         134.112         134.143         134.178         134.216    
          134.255         134.294         134.331         134.368         134.405         134.443         134.481         134.531         134.574         134.613    
          134.654         134.697         134.739         134.780         134.822         134.861         134.894         134.922         134.945         134.965    
          134.983         134.999         135.013         135.025         135.035         135.042         134.002         134.022         134.042         134.063    
          134.088         134.115         134.145         134.178         134.213         134.248         134.284         134.318         134.353         134.387    
          134.428         134.454         134.036         134.053         134.071         134.093         134.119         134.147         134.178         134.210    
          134.243         134.274         134.304         134.340         134.364         134.064         134.075         134.096         134.121         134.148    
          134.178         134.209         134.239         134.266         134.284    

 HEAD WILL BE SAVED ON UNIT 1021 AT END OF TIME STEP    1, STRESS PERIOD    1

 SFR PACKAGE (SFR) STAGES FOR EACH CONTROL VOLUME   PERIOD      1   STEP        1
 -------------------------------------------------------------------------------------------------------------
                                                                                      STREAMBED    STREAMBED  
   NUMBER   CELLID                  STAGE        DEPTH        WIDTH       GWF HEAD   CONDUCTANCE    GRADIENT  
 -------------------------------------------------------------------------------------------------------------
     1      (2,2565)              143.61       0.0000       0.0000       135.17       1016.1       1.0000     
     2      (2,2563)              143.50       0.0000       0.0000       135.17       319.68       1.0000     
     3      (2,2561)              143.45       0.0000       0.0000       135.17       615.17       1.0000     
     4      (2,2560)              143.45       0.0000       0.0000       135.17       955.58       1.0000     
     5      (2,2557)              143.45       0.0000       0.0000       135.17       490.75       1.0000     
     6      (2,2485)              143.45       0.0000       0.0000       135.17       478.66       1.0000     
     7      (2,2484)              143.42       0.0000       0.0000       135.17       1093.8       1.0000     
     8      (2,2481)              143.33       0.0000       0.0000       135.17       60.480       1.0000     
     9      (2,2479)              143.33       0.0000       0.0000       135.18       862.27       1.0000     
     10     (2,2478)              143.33       0.0000       0.0000       135.17       978.05       1.0000     
     11     (2,2399)              143.33       0.0000       0.0000       135.18       371.52       1.0000     
     12     (2,2396)              143.33       0.0000       0.0000       135.18       584.06       1.0000     
     13     (2,2394)              143.28       0.0000       0.0000       135.18       998.78       1.0000     
     14     (2,2393)              143.25       0.0000       0.0000       135.18       98.496       1.0000     
     15     (2,2304)              143.14       0.0000       0.0000       135.18       917.57       1.0000     
     16     (2,2301)              143.14       0.0000       0.0000       135.18       910.66       1.0000     
     17     (2,2300)              143.14       0.0000       0.0000       135.18       65.664       1.0000     
     18     (2,2389)              143.14       0.0000       0.0000       135.18       812.16       1.0000     
     19     (2,2386)              143.07       0.0000       0.0000       135.17       870.91       1.0000     
     20     (2,2385)              143.07       0.0000       0.0000       135.17       278.21       1.0000     
     21     (2,2296)              143.07       0.0000       0.0000       135.18       603.07       1.0000     
     22     (2,2293)              143.07       0.0000       0.0000       135.17       893.38       1.0000     
     23     (2,2292)              143.07       0.0000       0.0000       135.17       884.74       1.0000     
     24     (2,2289)              143.07       0.0000       0.0000       135.17       910.66       1.0000     
     25     (2,2288)              143.07       0.0000       0.0000       135.17       153.79       1.0000     
     26     (2,2286)              143.03       0.0000       0.0000       135.17       781.06       1.0000     
     27     (2,2283)              143.03       0.0000       0.0000       135.17       889.92       1.0000     
     28     (2,2282)              143.03       0.0000       0.0000       135.17       877.82       1.0000     
     29     (2,2279)              143.03       0.0000       0.0000       135.16       884.74       1.0000     
     30     (2,2278)              143.03       0.0000       0.0000       135.16       896.83       1.0000     
     31     (2,2275)              143.03       0.0000       0.0000       135.16       172.80       1.0000     
     32     (2,2277)              143.03       0.0000       0.0000       135.15       730.94       1.0000     
     33     (2,2276)              143.03       0.0000       0.0000       135.15       908.93       1.0000     
     34     (2,2273)              143.03       0.0000       0.0000       135.15       891.65       1.0000     
     35     (2,2272)              143.03       0.0000       0.0000       135.14       454.46       1.0000     
     36     (2,2376)              143.03       0.0000       0.0000       135.14       442.37       1.0000     
     37     (2,2373)              143.03       0.0000       0.0000       135.13       881.28       1.0000     
     38     (2,2372)              143.03       0.0000       0.0000       135.13       881.28       1.0000     
     39     (2,2369)              143.01       0.0000       0.0000       135.12       902.02       1.0000     
     40     (2,2368)              142.55       0.0000       0.0000       135.12       806.98       1.0000     
     41     (2,2370)              142.55       0.0000       0.0000       135.11       82.944       1.0000     
     42     (2,2367)              142.05       0.0000       0.0000       135.11       902.02       1.0000     
     43     (2,2366)              141.75       0.0000       0.0000       135.10       898.56       1.0000     
     44     (2,2363)              141.22       0.0000       0.0000       135.10       876.10       1.0000     
     45     (2,2362)              140.98       0.0000       0.0000       135.09       926.21       1.0000     
     46     (2,2462)              140.62       0.0000       0.0000       135.09       5.1840       1.0000     
     47     (1,2459)              140.43       0.0000       0.0000       135.08       1069.6       1.0000     
     48     (1,2458)              140.43       0.0000       0.0000       135.08       362.88       1.0000     
     49     (1,2460)              140.05       0.0000       0.0000       135.07       713.66       1.0000     
     50     (1,2457)              140.05       0.0000       0.0000       135.07       705.02       1.0000     
     51     (1,2538)              139.72       0.0000       0.0000       135.06       412.99       1.0000     
     52     (1,2537)              139.72       0.0000       0.0000       135.06       983.23       1.0000     
     53     (1,2539)              139.56       0.0000       0.0000       135.06       190.08       1.0000     
     54     (1,2536)              139.54       0.0000       0.0000       135.05       886.46       1.0000     
     55     (1,2614)              139.39       0.0000       0.0000       135.05       635.90       1.0000     
     56     (1,2613)              139.36       0.0000       0.0000       135.04       435.46       1.0000     
     57     (1,2615)              139.20       0.0000       0.0000       135.04       955.58       1.0000     
     58     (1,2682)              139.02       0.0000       0.0000       135.04       884.74       1.0000     
     59     (1,2684)              138.96       0.0000       0.0000       135.04       539.14       1.0000     
     60     (1,2681)              138.89       0.0000       0.0000       135.03       447.55       1.0000     
     61     (1,2762)              138.89       0.0000       0.0000       135.03       857.09       1.0000     
     62     (1,2761)              138.84       0.0000       0.0000       135.02       364.61       1.0000     
     63     (1,2763)              138.84       0.0000       0.0000       135.02       627.26       1.0000     
     64     (1,2760)              138.65       0.0000       0.0000       135.01       978.05       1.0000     
     65     (1,2759)              138.58       0.0000       0.0000       135.01       883.01       1.0000     
     66     (1,2756)              138.49       0.0000       0.0000       135.00       903.74       1.0000     
     67     (1,2755)              138.33       0.0000       0.0000       134.99       896.83       1.0000     
     68     (1,2752)              138.33       0.0000       0.0000       134.98       910.66       1.0000     
     69     (1,2751)              138.33       0.0000       0.0000       134.98       926.21       1.0000     
     70     (1,2748)              138.33       0.0000       0.0000       134.97       38.016       1.0000     
     71     (1,2831)              138.33       0.0000       0.0000       134.96       926.21       1.0000     
     72     (1,2830)              138.33       0.0000       0.0000       134.95       927.94       1.0000     
     73     (1,2827)              138.33       0.0000       0.0000       134.94       336.96       1.0000     
     74     (1,2829)              138.33       0.0000       0.0000       134.94       585.79       1.0000     
     75     (1,2828)              138.33       0.0000       0.0000       134.93       910.66       1.0000     
     76     (1,2825)              138.33       0.0000       0.0000       134.92       910.66       1.0000     
     77     (1,2824)              138.33       0.0000       0.0000       134.91       321.41       1.0000     
     78     (1,2895)              138.33       0.0000       0.0000       134.90       589.25       1.0000     
     79     (1,2892)              138.33       0.0000       0.0000       134.88       900.29       1.0000     
     80     (1,2891)              138.33       0.0000       0.0000       134.88       927.94       1.0000     
     81     (1,2888)              138.33       0.0000       0.0000       134.85       872.64       1.0000     
     82     (2,2887)              138.33       0.0000       0.0000       134.84       1164.7       1.0000     
     83     (1,2884)              138.33       0.0000       0.0000       134.82       190.08       1.0000     
     84     (1,2819)              138.33       0.0000       0.0000       134.83       1031.6       1.0000     
     85     (1,2818)              138.24       0.0000       0.0000       134.82       190.08       1.0000     
     86     (1,2816)              138.24       0.0000       0.0000       134.83       1031.6       1.0000     
     87     (1,2813)              137.98       0.0000       0.0000       134.81       190.08       1.0000     
     88     (1,2739)              137.98       0.0000       0.0000       134.82       1031.6       1.0000     
     89     (1,2738)              137.56       0.0000       0.0000       134.80       190.08       1.0000     
     90     (1,2736)              137.56       0.0000       0.0000       134.81       1031.6       1.0000     
     91     (1,2733)              137.21       0.0000       0.0000       134.80       190.08       1.0000     
     92     (1,2667)              137.21       0.0000       0.0000       134.80       1031.6       1.0000     
     93     (1,2666)              137.20       0.0000       0.0000       134.79       190.08       1.0000     
     94     (1,2664)              137.11       0.0000       0.0000       134.80       1099.0       1.0000     
     95     (1,2600)              136.90       0.0000       0.0000       134.80       421.63       1.0000     
     96     (1,2597)              136.63       0.0000       0.0000       134.79       644.54       1.0000     
     97     (1,2595)              136.63       0.0000       0.0000       134.80       981.50       1.0000     
     98     (1,2520)              136.63       0.0000       0.0000       134.81       297.22       1.0000     
     99     (1,2519)              136.63       0.0000       0.0000       134.80       803.52       1.0000     
    100     (1,2517)              136.63       0.0000       0.0000       134.80       983.23       1.0000     
    101     (1,2436)              136.63       0.0000       0.0000       134.81       1054.1       1.0000     
    102     (1,2434)              136.63       0.0000       0.0000       134.82       632.45       1.0000     
    103     (1,2435)              136.63       0.0000       0.0000       134.83       1263.2       1.0000     
    104     (1,2438)              136.63       0.0000       0.0000       134.84       336.96       1.0000     
    105     (1,2344)              136.63       0.0000       0.0000       134.85       910.66       1.0000     
    106     (1,2342)              136.63       0.0000       0.0000       134.85       615.17       1.0000     
    107     (1,2343)              136.63       0.0000       0.0000       134.86       457.92       1.0000     
    108     (1,2251)              136.60       0.0000       0.0000       134.87       1016.1       1.0000     
    109     (1,2249)              136.49       0.0000       0.0000       134.88       864.00       1.0000     
    110     (1,2183)              136.36       0.0000       0.0000       134.89       934.85       1.0000     
    111     (1,2181)              136.30       0.0000       0.0000       134.89       864.00       1.0000     
    112     (1,2114)              136.30       0.0000       0.0000       134.90       872.64       1.0000     
    113     (1,2112)              136.30       0.0000       0.0000       134.91       867.46       1.0000     
    114     (1,2044)              136.30       0.0000       0.0000       134.92       430.27       1.0000     
    115     (1,2043)              136.30       0.0000       0.0000       134.91       546.05       1.0000     
    116     (1,2041)              136.28       0.0000       0.0000       134.91       1021.2       1.0000     
    117     (1,1972)              136.28       0.0000       0.0000       134.92       148.61       1.0000     
    118     (1,1969)              136.05       0.0000       0.0000       134.91       943.49       1.0000     
    119     (1,1967)              136.05       0.0000       0.0000       134.91       508.03       1.0000     
    120     (1,1966)              135.98       0.0000       0.0000       134.90       565.06       1.0000     
    121     (1,1893)              135.90       0.0000       0.0000       134.91       855.36       0.98934    
    122     (1,1894)              135.90       0.0000       0.0000       134.92       200.45       0.97785    
    123     (1,1892)              135.90       0.0000       0.0000       134.93       888.19       0.97100    
    124     (1,1895)              135.89       0.0000       0.0000       134.94       888.19       0.94778    
    125     (1,1896)              135.89       0.0000       0.0000       134.95       739.58       0.93606    
    126     (1,1819)              135.89       0.0000       0.0000       134.96       205.63       0.92677    
    127     (1,1822)              135.88       0.0000       0.0000       134.98       924.48       0.90421    
    128     (1,1820)              135.64       0.0000       0.0000       134.98       907.20       0.65619    
    129     (1,1745)              135.64       0.0000       0.0000       134.99       1152.6       0.64659    
    130     (1,1742)              135.56       0.0000       0.0000       134.98       888.19       0.57879    
    131     (1,1741)              135.56       0.0000       0.0000       134.97       926.21       0.59149    
    132     (1,1738)              135.47       0.0000       0.0000       134.96       910.66       0.51474    
    133     (1,1737)              135.47       0.0000       0.0000       134.94       433.73       0.52595    
    134     (1,1735)              135.44       0.0000       0.0000       134.95       860.54       0.48720    
    135     (1,1732)              135.44       0.0000       0.0000       134.94       229.82       0.50163    
    136     (1,1653)              135.38       0.0000       0.0000       134.95       993.60       0.43172    
    137     (1,1651)              135.36       0.0000       0.0000       134.96       1054.1       0.40118    
    138     (1,1654)              135.36       0.0000       0.0000       134.97       870.91       0.38678    
    139     (1,1655)              135.32       0.0000       0.0000       134.99       974.59       0.33334    
    140     (1,1658)              135.32       0.0000       0.0000       135.00       273.02       0.32054    
    141     (1,1548)              135.32       0.0000       0.0000       135.01       903.74       0.30883    
    142     (1,1546)              135.32       0.0000       0.0000       135.02       571.97       0.29612    
    143     (1,1543)              135.32       0.0000       0.0000       135.01       746.50       0.30985    
    144     (1,1453)              135.32       0.0000       0.0000       135.02       342.14       0.29689    
    145     (1,1452)              135.32       0.0000       0.0000       135.01       914.11       0.31096    
    146     (1,1449)              135.32       0.0000       0.0000       134.99       914.11       0.32577    
    147     (1,1448)              135.32       0.0000       0.0000       134.98       302.40       0.34010    
    148     (1,1538)              135.28       0.0000       0.0000       134.97       668.74       0.31365    
    149     (1,1535)              135.28       0.0000       0.0000       134.95       969.41       0.33116    
    150     (1,1537)              135.26       0.0000       0.0000       134.94       955.58       0.32153    
    151     (1,1647)              135.26       0.0000       0.0000       134.93       910.66       0.33271    
    152     (1,1649)              135.26       0.0000       0.0000       134.92       931.39       0.34393    
    153     (1,1648)              135.26       0.0000       0.0000       134.90       896.83       0.35846    
    154     (1,1645)              135.21       0.0000       0.0000       134.88       940.03       0.32844    
    155     (1,1644)              135.13       0.0000       0.0000       134.87       648.00       0.26438    
    156     (1,1642)              135.06       0.0000       0.0000       134.88       421.63       0.18454    
    157     (1,1639)              135.06       0.0000       0.0000       134.85       933.12       0.20723    
    158     (1,1638)              135.06       0.0000       0.0000       134.84       400.90       0.22499    
    159     (1,1640)              135.06       0.0000       0.0000       134.83       587.52       0.23460    
    160     (1,1637)              135.06       0.0000       0.0000       134.80       910.66       0.25996    
    161     (1,1636)              135.06       0.0000       0.0000       134.78       872.64       0.28016    
    162     (1,1633)              135.06       0.0000       0.0000       134.75       865.73       0.30830    
    163     (1,1632)              135.05       0.0000       0.0000       134.73       870.91       0.32034    
    164     (1,1629)              135.05       0.0000       0.0000       134.70       874.37       0.35202    
    165     (1,1628)              135.05       0.0000       0.0000       134.67       865.73       0.37734    
    166     (1,1625)              135.00       0.0000       0.0000       134.64       870.91       0.36169    
    167     (1,1624)              134.97       0.0000       0.0000       134.61       879.55       0.35802    
    168     (1,1621)              134.97       0.0000       0.0000       134.58       881.28       0.39359    
    169     (1,1620)              134.97       0.0000       0.0000       134.55       900.29       0.42059    
    170     (1,1617)              134.97       0.0000       0.0000       134.51       487.30       0.45628    
    171     (1,1615)              134.90       0.0000       0.0000       134.52       461.38       0.37956    
    172     (1,1614)              134.90       0.0000       0.0000       134.49       946.94       0.40572    
    173     (1,1611)              134.90       0.0000       0.0000       134.46       589.25       0.44114    
    174     (1,1525)              134.89       0.0000       0.0000       134.46       406.08       0.42691    
    175     (1,1524)              134.77       0.0000       0.0000       134.43       965.95       0.34055    
    176     (1,1521)              134.77       0.0000       0.0000       134.39       577.15       0.37634    
    177     (1,1519)              134.77       0.0000       0.0000       134.40       428.54       0.36959    
    178     (1,1518)              134.77       0.0000       0.0000       134.37       905.47       0.40247    
    179     (1,1515)              134.77       0.0000       0.0000       134.33       539.14       0.43503    
    180     (1,1431)              134.77       0.0000       0.0000       134.34       864.00       0.43270    
    181     (1,1429)              134.77       0.0000       0.0000       134.34       774.14       0.43343    
    182     (1,1432)              134.73       0.0000       0.0000       134.37       502.85       0.35845    
    183     (1,1353)              134.72       0.0000       0.0000       134.37       907.20       0.34675    
    184     (1,1351)              134.72       0.0000       0.0000       134.37       883.01       0.34725    
    185     (1,1274)              134.72       0.0000       0.0000       134.37       902.02       0.35110    
    186     (1,1272)              134.71       0.0000       0.0000       134.36       900.29       0.34772    
    187     (1,1194)              134.38       0.0000       0.0000       134.35       927.94       3.36732E-02
    188     (1,1192)              134.27       4.12912E-03  2.0000       134.32       853.63      -4.53532E-02
    189     (1,1189)              134.28       6.29865E-03  2.0000       134.28       122.69      -6.75033E-03
    190     (1,1111)              134.18       8.95961E-03  2.0000       134.24       991.87      -6.22181E-02
    191     (1,1109)              134.18       1.24438E-02  2.0000       134.25       628.99      -6.50533E-02
    192     (1,1108)              134.18       1.40772E-02  2.0000       134.22       361.15      -4.05212E-02
    193     (1,1030)              134.19       1.53610E-02  2.0000       134.22       979.78      -3.28416E-02
    194     (1,1028)              134.19       1.70441E-02  2.0000       134.22       889.92      -3.73617E-02
    195     (1,950)               134.19       1.80908E-02  2.0000       134.24       186.62      -5.19577E-02
    196     (1,947)               134.09       1.97344E-02  2.0000       134.16       813.89      -7.51172E-02
    197     (1,945)               134.09       2.21217E-02  2.0000       134.18       546.05      -8.95966E-02
    198     (1,944)               134.09       2.40239E-02  2.0000       134.15       848.45      -5.26520E-02
    199     (1,866)               134.10       2.54161E-02  2.0000       134.17       354.24      -7.63853E-02
    200     (1,863)               134.10       2.65471E-02  2.0000       134.14       803.52      -4.12908E-02
    201     (1,861)               134.10       2.77862E-02  2.0000       134.16       608.26      -5.72254E-02
    202     (1,860)               134.10       2.87122E-02  2.0000       134.13       521.86      -3.32212E-02
    203     (1,782)               134.10       2.96140E-02  2.0000       134.14       822.53      -4.19943E-02
    204     (1,779)               134.09       3.03378E-02  2.0000       134.12       252.29      -3.11666E-02
    205     (1,777)               134.09       3.11138E-02  2.0000       134.13       1130.1      -3.39429E-02
    206     (1,700)               134.09       3.17607E-02  2.0000       134.15       12.096      -6.30159E-02
    207     (1,699)               134.09       3.21652E-02  2.0000       134.11       1138.8      -2.10498E-02
    208     (1,697)               134.09       3.26625E-02  2.0000       134.13       169.34      -3.97308E-02
    209     (1,694)               134.09       3.27956E-02  2.0000       134.09       927.94      -1.65494E-03
    210     (1,618)               134.02       3.33073E-02  2.0000       134.09       483.84      -6.29554E-02
    211     (1,617)               134.02       3.40632E-02  2.0000       134.05       578.88      -3.00778E-02
    212     (1,615)               134.02       3.47439E-02  2.0000       134.06       855.36      -3.07526E-02
    213     (1,612)               134.03       3.51627E-02  2.0000       134.03       361.15      -2.43440E-03
    214     (1,537)               134.03       3.50650E-02  2.0000       134.02       936.58       7.72931E-03
    215     (1,535)               133.86       3.60833E-02  2.0000       133.97       627.26      -0.11815    
    216     (1,534)               133.86       3.83566E-02  2.0000       133.94       976.32      -8.16873E-02
    217     (1,531)               133.86       3.95181E-02  2.0000       133.94       15.552      -8.11139E-02
    218     (1,457)               133.86       4.03881E-02  2.0000       133.92       1042.0      -5.80353E-02
    219     (1,455)               133.86       4.20467E-02  2.0000       133.92       1024.7      -5.82470E-02
    220     (1,382)               133.86       4.33176E-02  2.0000       133.95       388.80      -8.88780E-02
    221     (1,381)               133.86       4.44185E-02  2.0000       133.92       927.94      -5.23541E-02
    222     (1,378)               133.87       4.54772E-02  2.0000       133.90       889.92      -3.67218E-02
    223     (1,377)               133.87       4.62339E-02  2.0000       133.89       919.30      -2.84742E-02
    224     (1,375)               133.87       4.66692E-02  2.0000       133.92       160.70      -4.96674E-02
    225     (1,372)               133.87       4.71033E-02  2.0000       133.89       1038.5      -2.53120E-02
    226     (1,371)               133.87       4.75012E-02  2.0000       133.88       326.59      -1.62646E-02
    227     (1,299)               133.87       4.77746E-02  2.0000       133.89       701.57      -2.35173E-02
    228     (1,296)               133.87       4.80718E-02  2.0000       133.88       907.20      -8.05544E-03
    229     (1,294)               133.87       4.81924E-02  2.0000       133.89       119.23      -1.99695E-02
    230     (1,293)               133.87       4.82776E-02  2.0000       133.87       921.02      -4.85245E-03
    231     (1,290)               133.87       4.82125E-02  2.0000       133.86       884.74       1.09734E-02
    232     (1,289)               133.87       4.78246E-02  2.0000       133.84       908.93       2.35428E-02
    233     (1,286)               133.87       4.74755E-02  2.0000       133.81       114.05       5.66747E-02
    234     (1,250)               133.87       4.69082E-02  2.0000       133.82       789.70       4.87797E-02
    235     (1,249)               133.87       4.53720E-02  2.0000       133.78       979.78       8.31433E-02
    236     (1,246)               133.63       4.44797E-02  2.0000       133.67       387.07      -3.35755E-02
    237     (1,244)               133.56       4.51358E-02  2.0000       133.61       644.54      -5.78009E-02
    238     (1,243)               133.33       4.73828E-02  2.0000       133.50       786.24      -0.17622    
    239     (1,209)               133.33       4.99434E-02  2.0000       133.50       402.62      -0.17055    
    240     (1,206)               133.33       5.19264E-02  2.0000       133.45       819.07      -0.11815    
    241     (1,204)               133.33       5.36891E-02  2.0000       133.47       402.62      -0.13379    
    242     (1,203)               133.34       5.52254E-02  2.0000       133.43       819.07      -9.78448E-02
    243     (1,171)               133.34       5.66497E-02  2.0000       133.45       399.17      -0.11610    
    244     (1,168)               133.34       5.80907E-02  2.0000       133.42       1017.8      -8.23332E-02
    245     (1,166)               133.34       5.90843E-02  2.0000       133.47       57.024      -0.12636    
    246     (1,165)               133.34       6.01115E-02  2.0000       133.42       1164.7      -7.55129E-02
    247     (1,135)               133.34       6.11238E-02  2.0000       133.46       57.024      -0.12095    
    248     (1,132)               133.34       6.20652E-02  2.0000       133.41       1164.7      -7.06199E-02
    249     (1,130)               133.34       6.29946E-02  2.0000       133.46       57.024      -0.11658    
    250     (1,129)               133.34       6.38759E-02  2.0000       133.41       1164.7      -6.73662E-02
    251     (1,101)               133.34       6.47469E-02  2.0000       133.46       57.024      -0.11279    
    252     (1,98)                133.35       6.55825E-02  2.0000       133.41       1164.7      -6.50163E-02
    253     (1,96)                133.35       6.64096E-02  2.0000       133.46       57.024      -0.11026    
    254     (1,95)                133.35       6.72046E-02  2.0000       133.41       1164.7      -6.28416E-02
    255     (1,69)                133.35       6.79919E-02  2.0000       133.46       57.024      -0.10750    
    256     (1,66)                133.35       6.87450E-02  2.0000       133.41       1178.5      -5.96725E-02
    257     (1,65)                133.35       6.94676E-02  2.0000       133.42       48.384      -7.35162E-02
    258     (1,63)                133.34       7.01531E-02  2.0000       133.40       1061.0      -6.31525E-02
    259     (1,60)                133.34       7.09586E-02  2.0000       133.40       288.58      -5.72000E-02
    260     (1,36)                133.22       7.22865E-02  2.0000       133.35       934.85      -0.13107    
    261     (1,35)                133.22       7.39291E-02  2.0000       133.37       357.70      -0.14492    
    262     (1,33)                133.23       7.53399E-02  2.0000       133.37       708.48      -0.14116    
    263     (1,30)                133.23       7.71065E-02  2.0000       133.37       634.18      -0.14635    
    264     (1,8)                 133.23       7.89442E-02  2.0000       133.42       589.25      -0.18824    
    265     (1,7)                 133.23       8.10970E-02  2.0000       133.44       634.18      -0.20782    
    266     (1,5)                 133.23       8.24517E-02  2.0000       133.57       69.120      -0.33511    
 -------------------------------------------------------------------------------------------------------------



 SFR PACKAGE - SUMMARY OF FLOWS FOR EACH CONTROL VOLUME   PERIOD      1   STEP        1
 ------------------------------------------------------------------------------------------------------------------------------------------------------------------------------
                                                                                                                                                                     PERCENT   
   NUMBER   CELLID                  INFLOW      OUTFLOW        GWF        RAINFALL   EVAPORATION     RUNOFF     EXT INFLOW  EXT OUTFLOW    STORAGE      IN - OUT    DIFFERENCE 
 ------------------------------------------------------------------------------------------------------------------------------------------------------------------------------
     1      (2,2565)              0.0000       0.0000       0.0000       0.0000       0.0000       0.0000       0.0000       0.0000       0.0000       0.0000       0.0000     
     2      (2,2563)              0.0000       0.0000       0.0000       0.0000       0.0000       0.0000       0.0000       0.0000       0.0000       0.0000       0.0000     
     3      (2,2561)              0.0000       0.0000       0.0000       0.0000       0.0000       0.0000       0.0000       0.0000       0.0000       0.0000       0.0000     
     4      (2,2560)              0.0000       0.0000       0.0000       0.0000       0.0000       0.0000       0.0000       0.0000       0.0000       0.0000       0.0000     
     5      (2,2557)              0.0000       0.0000       0.0000       0.0000       0.0000       0.0000       0.0000       0.0000       0.0000       0.0000       0.0000     
     6      (2,2485)              0.0000       0.0000       0.0000       0.0000       0.0000       0.0000       0.0000       0.0000       0.0000       0.0000       0.0000     
     7      (2,2484)              0.0000       0.0000       0.0000       0.0000       0.0000       0.0000       0.0000       0.0000       0.0000       0.0000       0.0000     
     8      (2,2481)              0.0000       0.0000       0.0000       0.0000       0.0000       0.0000       0.0000       0.0000       0.0000       0.0000       0.0000     
     9      (2,2479)              0.0000       0.0000       0.0000       0.0000       0.0000       0.0000       0.0000       0.0000       0.0000       0.0000       0.0000     
     10     (2,2478)              0.0000       0.0000       0.0000       0.0000       0.0000       0.0000       0.0000       0.0000       0.0000       0.0000       0.0000     
     11     (2,2399)              0.0000       0.0000       0.0000       0.0000       0.0000       0.0000       0.0000       0.0000       0.0000       0.0000       0.0000     
     12     (2,2396)              0.0000       0.0000       0.0000       0.0000       0.0000       0.0000       0.0000       0.0000       0.0000       0.0000       0.0000     
     13     (2,2394)              0.0000       0.0000       0.0000       0.0000       0.0000       0.0000       0.0000       0.0000       0.0000       0.0000       0.0000     
     14     (2,2393)              0.0000       0.0000       0.0000       0.0000       0.0000       0.0000       0.0000       0.0000       0.0000       0.0000       0.0000     
     15     (2,2304)              0.0000       0.0000       0.0000       0.0000       0.0000       0.0000       0.0000       0.0000       0.0000       0.0000       0.0000     
     16     (2,2301)              0.0000       0.0000       0.0000       0.0000       0.0000       0.0000       0.0000       0.0000       0.0000       0.0000       0.0000     
     17     (2,2300)              0.0000       0.0000       0.0000       0.0000       0.0000       0.0000       0.0000       0.0000       0.0000       0.0000       0.0000     
     18     (2,2389)              0.0000       0.0000       0.0000       0.0000       0.0000       0.0000       0.0000       0.0000       0.0000       0.0000       0.0000     
     19     (2,2386)              0.0000       0.0000       0.0000       0.0000       0.0000       0.0000       0.0000       0.0000       0.0000       0.0000       0.0000     
     20     (2,2385)              0.0000       0.0000       0.0000       0.0000       0.0000       0.0000       0.0000       0.0000       0.0000       0.0000       0.0000     
     21     (2,2296)              0.0000       0.0000       0.0000       0.0000       0.0000       0.0000       0.0000       0.0000       0.0000       0.0000       0.0000     
     22     (2,2293)              0.0000       0.0000       0.0000       0.0000       0.0000       0.0000       0.0000       0.0000       0.0000       0.0000       0.0000     
     23     (2,2292)              0.0000       0.0000       0.0000       0.0000       0.0000       0.0000       0.0000       0.0000       0.0000       0.0000       0.0000     
     24     (2,2289)              0.0000       0.0000       0.0000       0.0000       0.0000       0.0000       0.0000       0.0000       0.0000       0.0000       0.0000     
     25     (2,2288)              0.0000       0.0000       0.0000       0.0000       0.0000       0.0000       0.0000       0.0000       0.0000       0.0000       0.0000     
     26     (2,2286)              0.0000       0.0000       0.0000       0.0000       0.0000       0.0000       0.0000       0.0000       0.0000       0.0000       0.0000     
     27     (2,2283)              0.0000       0.0000       0.0000       0.0000       0.0000       0.0000       0.0000       0.0000       0.0000       0.0000       0.0000     
     28     (2,2282)              0.0000       0.0000       0.0000       0.0000       0.0000       0.0000       0.0000       0.0000       0.0000       0.0000       0.0000     
     29     (2,2279)              0.0000       0.0000       0.0000       0.0000       0.0000       0.0000       0.0000       0.0000       0.0000       0.0000       0.0000     
     30     (2,2278)              0.0000       0.0000       0.0000       0.0000       0.0000       0.0000       0.0000       0.0000       0.0000       0.0000       0.0000     
     31     (2,2275)              0.0000       0.0000       0.0000       0.0000       0.0000       0.0000       0.0000       0.0000       0.0000       0.0000       0.0000     
     32     (2,2277)              0.0000       0.0000       0.0000       0.0000       0.0000       0.0000       0.0000       0.0000       0.0000       0.0000       0.0000     
     33     (2,2276)              0.0000       0.0000       0.0000       0.0000       0.0000       0.0000       0.0000       0.0000       0.0000       0.0000       0.0000     
     34     (2,2273)              0.0000       0.0000       0.0000       0.0000       0.0000       0.0000       0.0000       0.0000       0.0000       0.0000       0.0000     
     35     (2,2272)              0.0000       0.0000       0.0000       0.0000       0.0000       0.0000       0.0000       0.0000       0.0000       0.0000       0.0000     
     36     (2,2376)              0.0000       0.0000       0.0000       0.0000       0.0000       0.0000       0.0000       0.0000       0.0000       0.0000       0.0000     
     37     (2,2373)              0.0000       0.0000       0.0000       0.0000       0.0000       0.0000       0.0000       0.0000       0.0000       0.0000       0.0000     
     38     (2,2372)              0.0000       0.0000       0.0000       0.0000       0.0000       0.0000       0.0000       0.0000       0.0000       0.0000       0.0000     
     39     (2,2369)              0.0000       0.0000       0.0000       0.0000       0.0000       0.0000       0.0000       0.0000       0.0000       0.0000       0.0000     
     40     (2,2368)              0.0000       0.0000       0.0000       0.0000       0.0000       0.0000       0.0000       0.0000       0.0000       0.0000       0.0000     
     41     (2,2370)              0.0000       0.0000       0.0000       0.0000       0.0000       0.0000       0.0000       0.0000       0.0000       0.0000       0.0000     
     42     (2,2367)              0.0000       0.0000       0.0000       0.0000       0.0000       0.0000       0.0000       0.0000       0.0000       0.0000       0.0000     
     43     (2,2366)              0.0000       0.0000       0.0000       0.0000       0.0000       0.0000       0.0000       0.0000       0.0000       0.0000       0.0000     
     44     (2,2363)              0.0000       0.0000       0.0000       0.0000       0.0000       0.0000       0.0000       0.0000       0.0000       0.0000       0.0000     
     45     (2,2362)              0.0000       0.0000       0.0000       0.0000       0.0000       0.0000       0.0000       0.0000       0.0000       0.0000       0.0000     
     46     (2,2462)              0.0000       0.0000       0.0000       0.0000       0.0000       0.0000       0.0000       0.0000       0.0000       0.0000       0.0000     
     47     (1,2459)              0.0000       0.0000       0.0000       0.0000       0.0000       0.0000       0.0000       0.0000       0.0000       0.0000       0.0000     
     48     (1,2458)              0.0000       0.0000       0.0000       0.0000       0.0000       0.0000       0.0000       0.0000       0.0000       0.0000       0.0000     
     49     (1,2460)              0.0000       0.0000       0.0000       0.0000       0.0000       0.0000       0.0000       0.0000       0.0000       0.0000       0.0000     
     50     (1,2457)              0.0000       0.0000       0.0000       0.0000       0.0000       0.0000       0.0000       0.0000       0.0000       0.0000       0.0000     
     51     (1,2538)              0.0000       0.0000       0.0000       0.0000       0.0000       0.0000       0.0000       0.0000       0.0000       0.0000       0.0000     
     52     (1,2537)              0.0000       0.0000       0.0000       0.0000       0.0000       0.0000       0.0000       0.0000       0.0000       0.0000       0.0000     
     53     (1,2539)              0.0000       0.0000       0.0000       0.0000       0.0000       0.0000       0.0000       0.0000       0.0000       0.0000       0.0000     
     54     (1,2536)              0.0000       0.0000       0.0000       0.0000       0.0000       0.0000       0.0000       0.0000       0.0000       0.0000       0.0000     
     55     (1,2614)              0.0000       0.0000       0.0000       0.0000       0.0000       0.0000       0.0000       0.0000       0.0000       0.0000       0.0000     
     56     (1,2613)              0.0000       0.0000       0.0000       0.0000       0.0000       0.0000       0.0000       0.0000       0.0000       0.0000       0.0000     
     57     (1,2615)              0.0000       0.0000       0.0000       0.0000       0.0000       0.0000       0.0000       0.0000       0.0000       0.0000       0.0000     
     58     (1,2682)              0.0000       0.0000       0.0000       0.0000       0.0000       0.0000       0.0000       0.0000       0.0000       0.0000       0.0000     
     59     (1,2684)              0.0000       0.0000       0.0000       0.0000       0.0000       0.0000       0.0000       0.0000       0.0000       0.0000       0.0000     
     60     (1,2681)              0.0000       0.0000       0.0000       0.0000       0.0000       0.0000       0.0000       0.0000       0.0000       0.0000       0.0000     
     61     (1,2762)              0.0000       0.0000       0.0000       0.0000       0.0000       0.0000       0.0000       0.0000       0.0000       0.0000       0.0000     
     62     (1,2761)              0.0000       0.0000       0.0000       0.0000       0.0000       0.0000       0.0000       0.0000       0.0000       0.0000       0.0000     
     63     (1,2763)              0.0000       0.0000       0.0000       0.0000       0.0000       0.0000       0.0000       0.0000       0.0000       0.0000       0.0000     
     64     (1,2760)              0.0000       0.0000       0.0000       0.0000       0.0000       0.0000       0.0000       0.0000       0.0000       0.0000       0.0000     
     65     (1,2759)              0.0000       0.0000       0.0000       0.0000       0.0000       0.0000       0.0000       0.0000       0.0000       0.0000       0.0000     
     66     (1,2756)              0.0000       0.0000       0.0000       0.0000       0.0000       0.0000       0.0000       0.0000       0.0000       0.0000       0.0000     
     67     (1,2755)              0.0000       0.0000       0.0000       0.0000       0.0000       0.0000       0.0000       0.0000       0.0000       0.0000       0.0000     
     68     (1,2752)              0.0000       0.0000       0.0000       0.0000       0.0000       0.0000       0.0000       0.0000       0.0000       0.0000       0.0000     
     69     (1,2751)              0.0000       0.0000       0.0000       0.0000       0.0000       0.0000       0.0000       0.0000       0.0000       0.0000       0.0000     
     70     (1,2748)              0.0000       0.0000       0.0000       0.0000       0.0000       0.0000       0.0000       0.0000       0.0000       0.0000       0.0000     
     71     (1,2831)              0.0000       0.0000       0.0000       0.0000       0.0000       0.0000       0.0000       0.0000       0.0000       0.0000       0.0000     
     72     (1,2830)              0.0000       0.0000       0.0000       0.0000       0.0000       0.0000       0.0000       0.0000       0.0000       0.0000       0.0000     
     73     (1,2827)              0.0000       0.0000       0.0000       0.0000       0.0000       0.0000       0.0000       0.0000       0.0000       0.0000       0.0000     
     74     (1,2829)              0.0000       0.0000       0.0000       0.0000       0.0000       0.0000       0.0000       0.0000       0.0000       0.0000       0.0000     
     75     (1,2828)              0.0000       0.0000       0.0000       0.0000       0.0000       0.0000       0.0000       0.0000       0.0000       0.0000       0.0000     
     76     (1,2825)              0.0000       0.0000       0.0000       0.0000       0.0000       0.0000       0.0000       0.0000       0.0000       0.0000       0.0000     
     77     (1,2824)              0.0000       0.0000       0.0000       0.0000       0.0000       0.0000       0.0000       0.0000       0.0000       0.0000       0.0000     
     78     (1,2895)              0.0000       0.0000       0.0000       0.0000       0.0000       0.0000       0.0000       0.0000       0.0000       0.0000       0.0000     
     79     (1,2892)              0.0000       0.0000       0.0000       0.0000       0.0000       0.0000       0.0000       0.0000       0.0000       0.0000       0.0000     
     80     (1,2891)              0.0000       0.0000       0.0000       0.0000       0.0000       0.0000       0.0000       0.0000       0.0000       0.0000       0.0000     
     81     (1,2888)              0.0000       0.0000       0.0000       0.0000       0.0000       0.0000       0.0000       0.0000       0.0000       0.0000       0.0000     
     82     (2,2887)              0.0000       0.0000       0.0000       0.0000       0.0000       0.0000       0.0000       0.0000       0.0000       0.0000       0.0000     
     83     (1,2884)              0.0000       0.0000       0.0000       0.0000       0.0000       0.0000       0.0000       0.0000       0.0000       0.0000       0.0000     
     84     (1,2819)              0.0000       0.0000       0.0000       0.0000       0.0000       0.0000       0.0000       0.0000       0.0000       0.0000       0.0000     
     85     (1,2818)              0.0000       0.0000       0.0000       0.0000       0.0000       0.0000       0.0000       0.0000       0.0000       0.0000       0.0000     
     86     (1,2816)              0.0000       0.0000       0.0000       0.0000       0.0000       0.0000       0.0000       0.0000       0.0000       0.0000       0.0000     
     87     (1,2813)              0.0000       0.0000       0.0000       0.0000       0.0000       0.0000       0.0000       0.0000       0.0000       0.0000       0.0000     
     88     (1,2739)              0.0000       0.0000       0.0000       0.0000       0.0000       0.0000       0.0000       0.0000       0.0000       0.0000       0.0000     
     89     (1,2738)              0.0000       0.0000       0.0000       0.0000       0.0000       0.0000       0.0000       0.0000       0.0000       0.0000       0.0000     
     90     (1,2736)              0.0000       0.0000       0.0000       0.0000       0.0000       0.0000       0.0000       0.0000       0.0000       0.0000       0.0000     
     91     (1,2733)              0.0000       0.0000       0.0000       0.0000       0.0000       0.0000       0.0000       0.0000       0.0000       0.0000       0.0000     
     92     (1,2667)              0.0000       0.0000       0.0000       0.0000       0.0000       0.0000       0.0000       0.0000       0.0000       0.0000       0.0000     
     93     (1,2666)              0.0000       0.0000       0.0000       0.0000       0.0000       0.0000       0.0000       0.0000       0.0000       0.0000       0.0000     
     94     (1,2664)              0.0000       0.0000       0.0000       0.0000       0.0000       0.0000       0.0000       0.0000       0.0000       0.0000       0.0000     
     95     (1,2600)              0.0000       0.0000       0.0000       0.0000       0.0000       0.0000       0.0000       0.0000       0.0000       0.0000       0.0000     
     96     (1,2597)              0.0000       0.0000       0.0000       0.0000       0.0000       0.0000       0.0000       0.0000       0.0000       0.0000       0.0000     
     97     (1,2595)              0.0000       0.0000       0.0000       0.0000       0.0000       0.0000       0.0000       0.0000       0.0000       0.0000       0.0000     
     98     (1,2520)              0.0000       0.0000       0.0000       0.0000       0.0000       0.0000       0.0000       0.0000       0.0000       0.0000       0.0000     
     99     (1,2519)              0.0000       0.0000       0.0000       0.0000       0.0000       0.0000       0.0000       0.0000       0.0000       0.0000       0.0000     
    100     (1,2517)              0.0000       0.0000       0.0000       0.0000       0.0000       0.0000       0.0000       0.0000       0.0000       0.0000       0.0000     
    101     (1,2436)              0.0000       0.0000       0.0000       0.0000       0.0000       0.0000       0.0000       0.0000       0.0000       0.0000       0.0000     
    102     (1,2434)              0.0000       0.0000       0.0000       0.0000       0.0000       0.0000       0.0000       0.0000       0.0000       0.0000       0.0000     
    103     (1,2435)              0.0000       0.0000       0.0000       0.0000       0.0000       0.0000       0.0000       0.0000       0.0000       0.0000       0.0000     
    104     (1,2438)              0.0000       0.0000       0.0000       0.0000       0.0000       0.0000       0.0000       0.0000       0.0000       0.0000       0.0000     
    105     (1,2344)              0.0000       0.0000       0.0000       0.0000       0.0000       0.0000       0.0000       0.0000       0.0000       0.0000       0.0000     
    106     (1,2342)              0.0000       0.0000       0.0000       0.0000       0.0000       0.0000       0.0000       0.0000       0.0000       0.0000       0.0000     
    107     (1,2343)              0.0000       0.0000       0.0000       0.0000       0.0000       0.0000       0.0000       0.0000       0.0000       0.0000       0.0000     
    108     (1,2251)              0.0000       0.0000       0.0000       0.0000       0.0000       0.0000       0.0000       0.0000       0.0000       0.0000       0.0000     
    109     (1,2249)              0.0000       0.0000       0.0000       0.0000       0.0000       0.0000       0.0000       0.0000       0.0000       0.0000       0.0000     
    110     (1,2183)              0.0000       0.0000       0.0000       0.0000       0.0000       0.0000       0.0000       0.0000       0.0000       0.0000       0.0000     
    111     (1,2181)              0.0000       0.0000       0.0000       0.0000       0.0000       0.0000       0.0000       0.0000       0.0000       0.0000       0.0000     
    112     (1,2114)              0.0000       0.0000       0.0000       0.0000       0.0000       0.0000       0.0000       0.0000       0.0000       0.0000       0.0000     
    113     (1,2112)              0.0000       0.0000       0.0000       0.0000       0.0000       0.0000       0.0000       0.0000       0.0000       0.0000       0.0000     
    114     (1,2044)              0.0000       0.0000       0.0000       0.0000       0.0000       0.0000       0.0000       0.0000       0.0000       0.0000       0.0000     
    115     (1,2043)              0.0000       0.0000       0.0000       0.0000       0.0000       0.0000       0.0000       0.0000       0.0000       0.0000       0.0000     
    116     (1,2041)              0.0000       0.0000       0.0000       0.0000       0.0000       0.0000       0.0000       0.0000       0.0000       0.0000       0.0000     
    117     (1,1972)              0.0000       0.0000       0.0000       0.0000       0.0000       0.0000       0.0000       0.0000       0.0000       0.0000       0.0000     
    118     (1,1969)              0.0000       0.0000       0.0000       0.0000       0.0000       0.0000       0.0000       0.0000       0.0000       0.0000       0.0000     
    119     (1,1967)              0.0000       0.0000       0.0000       0.0000       0.0000       0.0000       0.0000       0.0000       0.0000       0.0000       0.0000     
    120     (1,1966)              0.0000       0.0000       0.0000       0.0000       0.0000       0.0000       0.0000       0.0000       0.0000       0.0000       0.0000     
    121     (1,1893)              0.0000       0.0000       0.0000       0.0000       0.0000       0.0000       0.0000       0.0000       0.0000       0.0000       0.0000     
    122     (1,1894)              0.0000       0.0000       0.0000       0.0000       0.0000       0.0000       0.0000       0.0000       0.0000       0.0000       0.0000     
    123     (1,1892)              0.0000       0.0000       0.0000       0.0000       0.0000       0.0000       0.0000       0.0000       0.0000       0.0000       0.0000     
    124     (1,1895)              0.0000       0.0000       0.0000       0.0000       0.0000       0.0000       0.0000       0.0000       0.0000       0.0000       0.0000     
    125     (1,1896)              0.0000       0.0000       0.0000       0.0000       0.0000       0.0000       0.0000       0.0000       0.0000       0.0000       0.0000     
    126     (1,1819)              0.0000       0.0000       0.0000       0.0000       0.0000       0.0000       0.0000       0.0000       0.0000       0.0000       0.0000     
    127     (1,1822)              0.0000       0.0000       0.0000       0.0000       0.0000       0.0000       0.0000       0.0000       0.0000       0.0000       0.0000     
    128     (1,1820)              0.0000       0.0000       0.0000       0.0000       0.0000       0.0000       0.0000       0.0000       0.0000       0.0000       0.0000     
    129     (1,1745)              0.0000       0.0000       0.0000       0.0000       0.0000       0.0000       0.0000       0.0000       0.0000       0.0000       0.0000     
    130     (1,1742)              0.0000       0.0000       0.0000       0.0000       0.0000       0.0000       0.0000       0.0000       0.0000       0.0000       0.0000     
    131     (1,1741)              0.0000       0.0000       0.0000       0.0000       0.0000       0.0000       0.0000       0.0000       0.0000       0.0000       0.0000     
    132     (1,1738)              0.0000       0.0000       0.0000       0.0000       0.0000       0.0000       0.0000       0.0000       0.0000       0.0000       0.0000     
    133     (1,1737)              0.0000       0.0000       0.0000       0.0000       0.0000       0.0000       0.0000       0.0000       0.0000       0.0000       0.0000     
    134     (1,1735)              0.0000       0.0000       0.0000       0.0000       0.0000       0.0000       0.0000       0.0000       0.0000       0.0000       0.0000     
    135     (1,1732)              0.0000       0.0000       0.0000       0.0000       0.0000       0.0000       0.0000       0.0000       0.0000       0.0000       0.0000     
    136     (1,1653)              0.0000       0.0000       0.0000       0.0000       0.0000       0.0000       0.0000       0.0000       0.0000       0.0000       0.0000     
    137     (1,1651)              0.0000       0.0000       0.0000       0.0000       0.0000       0.0000       0.0000       0.0000       0.0000       0.0000       0.0000     
    138     (1,1654)              0.0000       0.0000       0.0000       0.0000       0.0000       0.0000       0.0000       0.0000       0.0000       0.0000       0.0000     
    139     (1,1655)              0.0000       0.0000       0.0000       0.0000       0.0000       0.0000       0.0000       0.0000       0.0000       0.0000       0.0000     
    140     (1,1658)              0.0000       0.0000       0.0000       0.0000       0.0000       0.0000       0.0000       0.0000       0.0000       0.0000       0.0000     
    141     (1,1548)              0.0000       0.0000       0.0000       0.0000       0.0000       0.0000       0.0000       0.0000       0.0000       0.0000       0.0000     
    142     (1,1546)              0.0000       0.0000       0.0000       0.0000       0.0000       0.0000       0.0000       0.0000       0.0000       0.0000       0.0000     
    143     (1,1543)              0.0000       0.0000       0.0000       0.0000       0.0000       0.0000       0.0000       0.0000       0.0000       0.0000       0.0000     
    144     (1,1453)              0.0000       0.0000       0.0000       0.0000       0.0000       0.0000       0.0000       0.0000       0.0000       0.0000       0.0000     
    145     (1,1452)              0.0000       0.0000       0.0000       0.0000       0.0000       0.0000       0.0000       0.0000       0.0000       0.0000       0.0000     
    146     (1,1449)              0.0000       0.0000       0.0000       0.0000       0.0000       0.0000       0.0000       0.0000       0.0000       0.0000       0.0000     
    147     (1,1448)              0.0000       0.0000       0.0000       0.0000       0.0000       0.0000       0.0000       0.0000       0.0000       0.0000       0.0000     
    148     (1,1538)              0.0000       0.0000       0.0000       0.0000       0.0000       0.0000       0.0000       0.0000       0.0000       0.0000       0.0000     
    149     (1,1535)              0.0000       0.0000       0.0000       0.0000       0.0000       0.0000       0.0000       0.0000       0.0000       0.0000       0.0000     
    150     (1,1537)              0.0000       0.0000       0.0000       0.0000       0.0000       0.0000       0.0000       0.0000       0.0000       0.0000       0.0000     
    151     (1,1647)              0.0000       0.0000       0.0000       0.0000       0.0000       0.0000       0.0000       0.0000       0.0000       0.0000       0.0000     
    152     (1,1649)              0.0000       0.0000       0.0000       0.0000       0.0000       0.0000       0.0000       0.0000       0.0000       0.0000       0.0000     
    153     (1,1648)              0.0000       0.0000       0.0000       0.0000       0.0000       0.0000       0.0000       0.0000       0.0000       0.0000       0.0000     
    154     (1,1645)              0.0000       0.0000       0.0000       0.0000       0.0000       0.0000       0.0000       0.0000       0.0000       0.0000       0.0000     
    155     (1,1644)              0.0000       0.0000       0.0000       0.0000       0.0000       0.0000       0.0000       0.0000       0.0000       0.0000       0.0000     
    156     (1,1642)              0.0000       0.0000       0.0000       0.0000       0.0000       0.0000       0.0000       0.0000       0.0000       0.0000       0.0000     
    157     (1,1639)              0.0000       0.0000       0.0000       0.0000       0.0000       0.0000       0.0000       0.0000       0.0000       0.0000       0.0000     
    158     (1,1638)              0.0000       0.0000       0.0000       0.0000       0.0000       0.0000       0.0000       0.0000       0.0000       0.0000       0.0000     
    159     (1,1640)              0.0000       0.0000       0.0000       0.0000       0.0000       0.0000       0.0000       0.0000       0.0000       0.0000       0.0000     
    160     (1,1637)              0.0000       0.0000       0.0000       0.0000       0.0000       0.0000       0.0000       0.0000       0.0000       0.0000       0.0000     
    161     (1,1636)              0.0000       0.0000       0.0000       0.0000       0.0000       0.0000       0.0000       0.0000       0.0000       0.0000       0.0000     
    162     (1,1633)              0.0000       0.0000       0.0000       0.0000       0.0000       0.0000       0.0000       0.0000       0.0000       0.0000       0.0000     
    163     (1,1632)              0.0000       0.0000       0.0000       0.0000       0.0000       0.0000       0.0000       0.0000       0.0000       0.0000       0.0000     
    164     (1,1629)              0.0000       0.0000       0.0000       0.0000       0.0000       0.0000       0.0000       0.0000       0.0000       0.0000       0.0000     
    165     (1,1628)              0.0000       0.0000       0.0000       0.0000       0.0000       0.0000       0.0000       0.0000       0.0000       0.0000       0.0000     
    166     (1,1625)              0.0000       0.0000       0.0000       0.0000       0.0000       0.0000       0.0000       0.0000       0.0000       0.0000       0.0000     
    167     (1,1624)              0.0000       0.0000       0.0000       0.0000       0.0000       0.0000       0.0000       0.0000       0.0000       0.0000       0.0000     
    168     (1,1621)              0.0000       0.0000       0.0000       0.0000       0.0000       0.0000       0.0000       0.0000       0.0000       0.0000       0.0000     
    169     (1,1620)              0.0000       0.0000       0.0000       0.0000       0.0000       0.0000       0.0000       0.0000       0.0000       0.0000       0.0000     
    170     (1,1617)              0.0000       0.0000       0.0000       0.0000       0.0000       0.0000       0.0000       0.0000       0.0000       0.0000       0.0000     
    171     (1,1615)              0.0000       0.0000       0.0000       0.0000       0.0000       0.0000       0.0000       0.0000       0.0000       0.0000       0.0000     
    172     (1,1614)              0.0000       0.0000       0.0000       0.0000       0.0000       0.0000       0.0000       0.0000       0.0000       0.0000       0.0000     
    173     (1,1611)              0.0000       0.0000       0.0000       0.0000       0.0000       0.0000       0.0000       0.0000       0.0000       0.0000       0.0000     
    174     (1,1525)              0.0000       0.0000       0.0000       0.0000       0.0000       0.0000       0.0000       0.0000       0.0000       0.0000       0.0000     
    175     (1,1524)              0.0000       0.0000       0.0000       0.0000       0.0000       0.0000       0.0000       0.0000       0.0000       0.0000       0.0000     
    176     (1,1521)              0.0000       0.0000       0.0000       0.0000       0.0000       0.0000       0.0000       0.0000       0.0000       0.0000       0.0000     
    177     (1,1519)              0.0000       0.0000       0.0000       0.0000       0.0000       0.0000       0.0000       0.0000       0.0000       0.0000       0.0000     
    178     (1,1518)              0.0000       0.0000       0.0000       0.0000       0.0000       0.0000       0.0000       0.0000       0.0000       0.0000       0.0000     
    179     (1,1515)              0.0000       0.0000       0.0000       0.0000       0.0000       0.0000       0.0000       0.0000       0.0000       0.0000       0.0000     
    180     (1,1431)              0.0000       0.0000       0.0000       0.0000       0.0000       0.0000       0.0000       0.0000       0.0000       0.0000       0.0000     
    181     (1,1429)              0.0000       0.0000       0.0000       0.0000       0.0000       0.0000       0.0000       0.0000       0.0000       0.0000       0.0000     
    182     (1,1432)              0.0000       0.0000       0.0000       0.0000       0.0000       0.0000       0.0000       0.0000       0.0000       0.0000       0.0000     
    183     (1,1353)              0.0000       0.0000       0.0000       0.0000       0.0000       0.0000       0.0000       0.0000       0.0000       0.0000       0.0000     
    184     (1,1351)              0.0000       0.0000       0.0000       0.0000       0.0000       0.0000       0.0000       0.0000       0.0000       0.0000       0.0000     
    185     (1,1274)              0.0000       0.0000       0.0000       0.0000       0.0000       0.0000       0.0000       0.0000       0.0000       0.0000       0.0000     
    186     (1,1272)              0.0000       0.0000       0.0000       0.0000       0.0000       0.0000       0.0000       0.0000       0.0000       0.0000       0.0000     
    187     (1,1194)              0.0000       0.0000       0.0000       0.0000       0.0000       0.0000       0.0000       0.0000       0.0000       0.0000       0.0000     
    188     (1,1192)              0.0000      -38.715       38.715       0.0000       0.0000       0.0000       0.0000       0.0000       0.0000       0.0000       0.0000     
    189     (1,1189)              38.715      -39.543       0.82822      0.0000       0.0000       0.0000       0.0000       0.0000       0.0000       0.0000       0.0000     
    190     (1,1111)              39.543      -101.26       61.713       0.0000       0.0000       0.0000       0.0000       0.0000       0.0000       0.0000       0.0000     
    191     (1,1109)              101.26      -142.17       40.918       0.0000       0.0000       0.0000       0.0000       0.0000       0.0000       0.0000       0.0000     
    192     (1,1108)              142.17      -156.81       14.634       0.0000       0.0000       0.0000       0.0000       0.0000       0.0000       0.0000       0.0000     
    193     (1,1030)              156.81      -188.99       32.178       0.0000       0.0000       0.0000       0.0000       0.0000       0.0000       0.0000       0.0000     
    194     (1,1028)              188.99      -222.24       33.249       0.0000       0.0000       0.0000       0.0000       0.0000       0.0000       0.0000       0.0000     
    195     (1,950)               222.24      -231.93       9.6966       0.0000       0.0000       0.0000       0.0000       0.0000       0.0000       0.0000       0.0000     
    196     (1,947)               231.93      -293.07       61.137       0.0000       0.0000       0.0000       0.0000       0.0000       0.0000       0.0000       0.0000     
    197     (1,945)               293.07      -341.99       48.924       0.0000       0.0000       0.0000       0.0000       0.0000       0.0000       0.0000       0.0000     
    198     (1,944)               341.99      -386.67       44.673       0.0000       0.0000       0.0000       0.0000       0.0000       0.0000       0.0000       0.0000     
    199     (1,866)               386.67      -413.72       27.059       0.0000       0.0000       0.0000       0.0000       0.0000       0.0000       0.0000       0.0000     
    200     (1,863)               413.72      -446.90       33.178       0.0000       0.0000       0.0000       0.0000       0.0000       0.0000       0.0000       0.0000     
    201     (1,861)               446.90      -481.71       34.808       0.0000       0.0000       0.0000       0.0000       0.0000       0.0000       0.0000       0.0000     
    202     (1,860)               481.71      -499.05       17.337       0.0000       0.0000       0.0000       0.0000       0.0000       0.0000       0.0000       0.0000     
    203     (1,782)               499.05      -533.59       34.542       0.0000       0.0000       0.0000       0.0000       0.0000       0.0000       0.0000       0.0000     
    204     (1,779)               533.59      -541.45       7.8630       0.0000       0.0000       0.0000       0.0000       0.0000       0.0000       0.0000       0.0000     
    205     (1,777)               541.45      -579.81       38.360       0.0000       0.0000       0.0000       0.0000       0.0000       0.0000       0.0000       0.0000     
    206     (1,700)               579.81      -580.57       0.76224      0.0000       0.0000       0.0000       0.0000       0.0000       0.0000       0.0000       0.0000     
    207     (1,699)               580.57      -604.55       23.971       0.0000       0.0000       0.0000       0.0000       0.0000       0.0000       0.0000       0.0000     
    208     (1,697)               604.55      -611.27       6.7282       0.0000       0.0000       0.0000       0.0000       0.0000       0.0000       0.0000       0.0000     
    209     (1,694)               611.27      -612.81       1.5360       0.0000       0.0000       0.0000       0.0000       0.0000       0.0000       0.0000       0.0000     
    210     (1,618)               612.81      -643.27       30.461       0.0000       0.0000       0.0000       0.0000       0.0000       0.0000       0.0000       0.0000     
    211     (1,617)               643.27      -660.68       17.412       0.0000       0.0000       0.0000       0.0000       0.0000       0.0000       0.0000       0.0000     
    212     (1,615)               660.68      -686.99       26.305       0.0000       0.0000       0.0000       0.0000       0.0000       0.0000       0.0000       0.0000     
    213     (1,612)               686.99      -687.87       0.87940      0.0000       0.0000       0.0000       0.0000       0.0000       0.0000       0.0000       0.0000     
    214     (1,537)               687.87      -680.63      -7.2387       0.0000       0.0000       0.0000       0.0000       0.0000       0.0000       0.0000       0.0000     
    215     (1,535)               680.63      -754.74       74.110       0.0000       0.0000       0.0000       0.0000       0.0000       0.0000       0.0000       0.0000     
    216     (1,534)               754.74      -834.49       79.753       0.0000       0.0000       0.0000       0.0000       0.0000       0.0000       0.0000       0.0000     
    217     (1,531)               834.49      -835.75       1.2615       0.0000       0.0000       0.0000       0.0000       0.0000       0.0000       0.0000       0.0000     
    218     (1,457)               835.75      -896.22       60.472       0.0000       0.0000       0.0000       0.0000       0.0000       0.0000       0.0000       0.0000     
    219     (1,455)               896.22      -955.91       59.686       0.0000       0.0000       0.0000       0.0000       0.0000       0.0000       0.0000       0.0000     
    220     (1,382)               955.91      -990.47       34.556       0.0000       0.0000       0.0000       0.0000       0.0000       0.0000       0.0000       0.0000     
    221     (1,381)               990.47      -1039.0       48.582       0.0000       0.0000       0.0000       0.0000       0.0000       0.0000       0.0000       0.0000     
    222     (1,378)               1039.0      -1071.7       32.680       0.0000       0.0000       0.0000       0.0000       0.0000       0.0000       0.0000       0.0000     
    223     (1,377)               1071.7      -1097.9       26.177       0.0000       0.0000       0.0000       0.0000       0.0000       0.0000       0.0000       0.0000     
    224     (1,375)               1097.9      -1105.9       7.9818       0.0000       0.0000       0.0000       0.0000       0.0000       0.0000       0.0000       0.0000     
    225     (1,372)               1105.9      -1132.2       26.288       0.0000       0.0000       0.0000       0.0000       0.0000       0.0000       0.0000       0.0000     
    226     (1,371)               1132.2      -1137.5       5.3120       0.0000       0.0000       0.0000       0.0000       0.0000       0.0000       0.0000       0.0000     
    227     (1,299)               1137.5      -1154.0       16.499       0.0000       0.0000       0.0000       0.0000       0.0000       0.0000       0.0000       0.0000     
    228     (1,296)               1154.0      -1161.3       7.3082       0.0000       0.0000       0.0000       0.0000       0.0000       0.0000       0.0000       0.0000     
    229     (1,294)               1161.3      -1163.7       2.3811       0.0000       0.0000       0.0000       0.0000       0.0000       0.0000       0.0000       0.0000     
    230     (1,293)               1163.7      -1168.1       4.4695       0.0000       0.0000       0.0000       0.0000       0.0000       0.0000       0.0000       0.0000     
    231     (1,290)               1168.1      -1158.4      -9.7083       0.0000       0.0000       0.0000       0.0000       0.0000       0.0000       0.0000       0.0000     
    232     (1,289)               1158.4      -1137.0      -21.398       0.0000       0.0000       0.0000       0.0000       0.0000       0.0000       0.0000       0.0000     
    233     (1,286)               1137.0      -1130.6      -6.4636       0.0000       0.0000       0.0000       0.0000       0.0000       0.0000       0.0000       0.0000     
    234     (1,250)               1130.6      -1092.1      -38.521       0.0000       0.0000       0.0000       0.0000       0.0000       0.0000       0.0000       0.0000     
    235     (1,249)               1092.1      -1010.6      -81.461       0.0000       0.0000       0.0000       0.0000       0.0000       0.0000       0.0000       0.0000     
    236     (1,246)               1010.6      -1023.6       12.996       0.0000       0.0000       0.0000       0.0000       0.0000       0.0000       0.0000       0.0000     
    237     (1,244)               1023.6      -1060.8       37.255       0.0000       0.0000       0.0000       0.0000       0.0000       0.0000       0.0000       0.0000     
    238     (1,243)               1060.8      -1199.4       138.55       0.0000       0.0000       0.0000       0.0000       0.0000       0.0000       0.0000       0.0000     
    239     (1,209)               1199.4      -1268.1       68.668       0.0000       0.0000       0.0000       0.0000       0.0000       0.0000       0.0000       0.0000     
    240     (1,206)               1268.1      -1364.8       96.773       0.0000       0.0000       0.0000       0.0000       0.0000       0.0000       0.0000       0.0000     
    241     (1,204)               1364.8      -1418.7       53.869       0.0000       0.0000       0.0000       0.0000       0.0000       0.0000       0.0000       0.0000     
    242     (1,203)               1418.7      -1498.8       80.142       0.0000       0.0000       0.0000       0.0000       0.0000       0.0000       0.0000       0.0000     
    243     (1,171)               1498.8      -1545.2       46.342       0.0000       0.0000       0.0000       0.0000       0.0000       0.0000       0.0000       0.0000     
    244     (1,168)               1545.2      -1629.0       83.798       0.0000       0.0000       0.0000       0.0000       0.0000       0.0000       0.0000       0.0000     
    245     (1,166)               1629.0      -1636.2       7.2054       0.0000       0.0000       0.0000       0.0000       0.0000       0.0000       0.0000       0.0000     
    246     (1,165)               1636.2      -1724.1       87.948       0.0000       0.0000       0.0000       0.0000       0.0000       0.0000       0.0000       0.0000     
    247     (1,135)               1724.1      -1731.0       6.8970       0.0000       0.0000       0.0000       0.0000       0.0000       0.0000       0.0000       0.0000     
    248     (1,132)               1731.0      -1813.3       82.249       0.0000       0.0000       0.0000       0.0000       0.0000       0.0000       0.0000       0.0000     
    249     (1,130)               1813.3      -1819.9       6.6477       0.0000       0.0000       0.0000       0.0000       0.0000       0.0000       0.0000       0.0000     
    250     (1,129)               1819.9      -1898.4       78.460       0.0000       0.0000       0.0000       0.0000       0.0000       0.0000       0.0000       0.0000     
    251     (1,101)               1898.4      -1904.8       6.4318       0.0000       0.0000       0.0000       0.0000       0.0000       0.0000       0.0000       0.0000     
    252     (1,98)                1904.8      -1980.5       75.723       0.0000       0.0000       0.0000       0.0000       0.0000       0.0000       0.0000       0.0000     
    253     (1,96)                1980.5      -1986.8       6.2877       0.0000       0.0000       0.0000       0.0000       0.0000       0.0000       0.0000       0.0000     
    254     (1,95)                1986.8      -2060.0       73.190       0.0000       0.0000       0.0000       0.0000       0.0000       0.0000       0.0000       0.0000     
    255     (1,69)                2060.0      -2066.2       6.1304       0.0000       0.0000       0.0000       0.0000       0.0000       0.0000       0.0000       0.0000     
    256     (1,66)                2066.2      -2136.5       70.324       0.0000       0.0000       0.0000       0.0000       0.0000       0.0000       0.0000       0.0000     
    257     (1,65)                2136.5      -2140.0       3.5570       0.0000       0.0000       0.0000       0.0000       0.0000       0.0000       0.0000       0.0000     
    258     (1,63)                2140.0      -2207.0       67.005       0.0000       0.0000       0.0000       0.0000       0.0000       0.0000       0.0000       0.0000     
    259     (1,60)                2207.0      -2223.5       16.507       0.0000       0.0000       0.0000       0.0000       0.0000       0.0000       0.0000       0.0000     
    260     (1,36)                2223.5      -2346.1       122.53       0.0000       0.0000       0.0000       0.0000       0.0000       0.0000       0.0000       0.0000     
    261     (1,35)                2346.1      -2397.9       51.838       0.0000       0.0000       0.0000       0.0000       0.0000       0.0000       0.0000       0.0000     
    262     (1,33)                2397.9      -2497.9       100.01       0.0000       0.0000       0.0000       0.0000       0.0000       0.0000       0.0000       0.0000     
    263     (1,30)                2497.9      -2590.7       92.814       0.0000       0.0000       0.0000       0.0000       0.0000       0.0000       0.0000       0.0000     
    264     (1,8)                 2590.7      -2701.7       110.92       0.0000       0.0000       0.0000       0.0000       0.0000       0.0000       0.0000       0.0000     
    265     (1,7)                 2701.7      -2833.5       131.80       0.0000       0.0000       0.0000       0.0000       0.0000       0.0000       0.0000       0.0000     
    266     (1,5)                 2833.5       0.0000       23.163       0.0000       0.0000       0.0000       0.0000      -2856.6       0.0000       0.0000       0.0000     
 ------------------------------------------------------------------------------------------------------------------------------------------------------------------------------




  SFR BUDGET FOR ENTIRE MODEL AT END OF TIME STEP    1, STRESS PERIOD   1
  ------------------------------------------------------------------------------

     CUMULATIVE SFR      L**3       RATES FOR THIS TIME STEP      L**3/T
     ------------------                 ------------------------

           IN:                                      IN:
           ---                                      ---
                 GWF =        3021.4127                   GWF =        3021.4127
            RAINFALL =           0.0000              RAINFALL =           0.0000
         EVAPORATION =           0.0000           EVAPORATION =           0.0000
              RUNOFF =           0.0000                RUNOFF =           0.0000
          EXT-INFLOW =           0.0000            EXT-INFLOW =           0.0000
         EXT-OUTFLOW =           0.0000           EXT-OUTFLOW =           0.0000
             STORAGE =           0.0000               STORAGE =           0.0000

            TOTAL IN =        3021.4127              TOTAL IN =        3021.4127

          OUT:                                     OUT:
          ----                                     ----
                 GWF =         164.7912                   GWF =         164.7912
            RAINFALL =           0.0000              RAINFALL =           0.0000
         EVAPORATION =           0.0000           EVAPORATION =           0.0000
              RUNOFF =           0.0000                RUNOFF =           0.0000
          EXT-INFLOW =           0.0000            EXT-INFLOW =           0.0000
         EXT-OUTFLOW =        2856.6215           EXT-OUTFLOW =        2856.6215
             STORAGE =           0.0000               STORAGE =           0.0000

           TOTAL OUT =        3021.4127             TOTAL OUT =        3021.4127

            IN - OUT =       4.5475E-13              IN - OUT =       4.5475E-13

 PERCENT DISCREPANCY =           0.00     PERCENT DISCREPANCY =           0.00



  VOLUME BUDGET FOR ENTIRE MODEL AT END OF TIME STEP    1, STRESS PERIOD   1
  ---------------------------------------------------------------------------------------------------

     CUMULATIVE VOLUME      L**3       RATES FOR THIS TIME STEP      L**3/T          PACKAGE NAME    
     ------------------                 ------------------------                     ----------------

           IN:                                      IN:
           ---                                      ---
              STO-SS =           0.0000                STO-SS =           0.0000     STORAGE         
              STO-SY =           0.0000                STO-SY =           0.0000     STORAGE         
                 GHB =        3829.3034                   GHB =        3829.3034     GHB             
                 RCH =          93.4797                   RCH =          93.4797     RCH             
                 SFR =         164.7929                   SFR =         164.7929     SFR             

            TOTAL IN =        4087.5761              TOTAL IN =        4087.5761

          OUT:                                     OUT:
          ----                                     ----
              STO-SS =           0.0000                STO-SS =           0.0000     STORAGE         
              STO-SY =           0.0000                STO-SY =           0.0000     STORAGE         
                 GHB =        1066.4416                   GHB =        1066.4416     GHB             
                 RCH =           0.0000                   RCH =           0.0000     RCH             
                 SFR =        3021.3998                   SFR =        3021.3998     SFR             

           TOTAL OUT =        4087.8414             TOTAL OUT =        4087.8414

            IN - OUT =           0.2653              IN - OUT =           0.2653

 PERCENT DISCREPANCY =          -0.01     PERCENT DISCREPANCY =          -0.01




         TIME SUMMARY AT END OF TIME STEP    1 IN STRESS PERIOD    1
                    SECONDS     MINUTES      HOURS       DAYS        YEARS
                    -----------------------------------------------------------
   TIME STEP LENGTH  86400.      1440.0      24.000      1.0000     2.73785E-03
 STRESS PERIOD TIME  86400.      1440.0      24.000      1.0000     2.73785E-03
         TOTAL TIME  86400.      1440.0      24.000      1.0000     2.73785E-03


end timestep


start timestep kper="2" kstp="1" mode="normal"


 END OF FILE DETECTED IN OUTPUT CONTROL.
 CURRENT OUTPUT CONTROL SETTINGS WILL BE 
 REPEATED UNTIL THE END OF THE SIMULATION.

 OUTPUT CONTROL FOR STRESS PERIOD 2 IS REPEATED USING SETTINGS FROM A PREVIOUS STRESS PERIOD.


 PROCESSING STORAGE PERIOD DATA
 END PROCESSING STORAGE PERIOD DATA


 STRESS PERIOD 2 IS TRANSIENT


 REUSING GHBS FROM LAST STRESS PERIOD
 -------------------------------------------
  RCH NO.    LAYER  CELL2D      RECHARGE    
 -------------------------------------------
     1         1       7     5.479452050E-04
     2         1       8     5.479452050E-04
     3         1      24     5.479452050E-04
     4         1      25     5.479452050E-04
     5         1      26     5.479452050E-04
     6         1      27     5.479452050E-04
     7         1      28     5.479452050E-04
     8         1      29     5.479452050E-04
     9         1      30     5.479452050E-04
     10        1      31     5.479452050E-04
     11        1      32     5.479452050E-04
     12        1      33     5.479452050E-04
     13        1      34     5.479452050E-04
     14        1      35     5.479452050E-04
     15        1      36     5.479452050E-04
     16        1      37     5.479452050E-04
     17        1      38     5.479452050E-04
     18        1      39     5.479452050E-04
     19        1      40     5.479452050E-04
     20        1      41     5.479452050E-04
     21        1      42     5.479452050E-04
     22        1      43     5.479452050E-04
     23        1      44     5.479452050E-04
     24        1      45     5.479452050E-04
     25        1      46     5.479452050E-04
     26        1      47     5.479452050E-04
     27        1      48     5.479452050E-04
     28        1      49     5.479452050E-04
     29        1      50     5.479452050E-04
     30        1      53     5.479452050E-04
     31        1      54     5.479452050E-04
     32        1      55     5.479452050E-04
     33        1      56     5.479452050E-04
     34        1      57     5.479452050E-04
     35        1      58     5.479452050E-04
     36        1      59     5.479452050E-04
     37        1      60     5.479452050E-04
     38        1      61     5.479452050E-04
     39        1      62     5.479452050E-04
     40        1      63     5.479452050E-04
     41        1      64     5.479452050E-04
     42        1      65     5.479452050E-04
     43        1      66     5.479452050E-04
     44        1      67     5.479452050E-04
     45        1      68     5.479452050E-04
     46        1      69     5.479452050E-04
     47        1      70     5.479452050E-04
     48        1      71     5.479452050E-04
     49        1      72     5.479452050E-04
     50        1      73     5.479452050E-04
     51        1      74     5.479452050E-04
     52        1      75     5.479452050E-04
     53        1      76     5.479452050E-04
     54        1      77     5.479452050E-04
     55        1      78     5.479452050E-04
     56        1      79     5.479452050E-04
     57        1      80     5.479452050E-04
     58        1      81     5.479452050E-04
     59        1      82     5.479452050E-04
     60        1      83     5.479452050E-04
     61        1      86     5.479452050E-04
     62        1      87     5.479452050E-04
     63        1      88     5.479452050E-04
     64        1      89     5.479452050E-04
     65        1      90     5.479452050E-04
     66        1      91     5.479452050E-04
     67        1      92     5.479452050E-04
     68        1      93     5.479452050E-04
     69        1      94     5.479452050E-04
     70        1      95     5.479452050E-04
     71        1      96     5.479452050E-04
     72        1      97     5.479452050E-04
     73        1      98     5.479452050E-04
     74        1      99     5.479452050E-04
     75        1      100    5.479452050E-04
     76        1      101    5.479452050E-04
     77        1      102    5.479452050E-04
     78        1      103    5.479452050E-04
     79        1      104    5.479452050E-04
     80        1      105    5.479452050E-04
     81        1      106    5.479452050E-04
     82        1      107    5.479452050E-04
     83        1      108    5.479452050E-04
     84        1      109    5.479452050E-04
     85        1      110    5.479452050E-04
     86        1      111    5.479452050E-04
     87        1      112    5.479452050E-04
     88        1      113    5.479452050E-04
     89        1      114    5.479452050E-04
     90        1      115    5.479452050E-04
     91        1      118    5.479452050E-04
     92        1      119    5.479452050E-04
     93        1      120    5.479452050E-04
     94        1      121    5.479452050E-04
     95        1      122    5.479452050E-04
     96        1      123    5.479452050E-04
     97        1      124    5.479452050E-04
     98        1      125    5.479452050E-04
     99        1      126    5.479452050E-04
    100        1      127    5.479452050E-04
    101        1      128    5.479452050E-04
    102        1      129    5.479452050E-04
    103        1      130    5.479452050E-04
    104        1      131    5.479452050E-04
    105        1      132    5.479452050E-04
    106        1      133    5.479452050E-04
    107        1      134    5.479452050E-04
    108        1      135    5.479452050E-04
    109        1      136    5.479452050E-04
    110        1      137    5.479452050E-04
    111        1      138    5.479452050E-04
    112        1      139    5.479452050E-04
    113        1      140    5.479452050E-04
    114        1      141    5.479452050E-04
    115        1      142    5.479452050E-04
    116        1      143    5.479452050E-04
    117        1      144    5.479452050E-04
    118        1      145    5.479452050E-04
    119        1      146    5.479452050E-04
    120        1      147    5.479452050E-04
    121        1      148    5.479452050E-04
    122        1      149    5.479452050E-04
    123        1      152    5.479452050E-04
    124        1      153    5.479452050E-04
    125        1      154    5.479452050E-04
    126        1      155    5.479452050E-04
    127        1      156    5.479452050E-04
    128        1      157    5.479452050E-04
    129        1      158    5.479452050E-04
    130        1      159    5.479452050E-04
    131        1      160    5.479452050E-04
    132        1      161    5.479452050E-04
    133        1      162    5.479452050E-04
    134        1      163    5.479452050E-04
    135        1      164    5.479452050E-04
    136        1      165    5.479452050E-04
    137        1      166    5.479452050E-04
    138        1      167    5.479452050E-04
    139        1      168    5.479452050E-04
    140        1      169    5.479452050E-04
    141        1      170    5.479452050E-04
    142        1      171    5.479452050E-04
    143        1      172    5.479452050E-04
    144        1      173    5.479452050E-04
    145        1      174    5.479452050E-04
    146        1      175    5.479452050E-04
    147        1      176    5.479452050E-04
    148        1      177    5.479452050E-04
    149        1      178    5.479452050E-04
    150        1      179    5.479452050E-04
    151        1      180    5.479452050E-04
    152        1      181    5.479452050E-04
    153        1      182    5.479452050E-04
    154        1      183    5.479452050E-04
    155        1      184    5.479452050E-04
    156        1      185    5.479452050E-04
    157        1      188    5.479452050E-04
    158        1      189    5.479452050E-04
    159        1      190    5.479452050E-04
    160        1      191    5.479452050E-04
    161        1      192    5.479452050E-04
    162        1      193    5.479452050E-04
    163        1      194    5.479452050E-04
    164        1      195    5.479452050E-04
    165        1      196    5.479452050E-04
    166        1      197    5.479452050E-04
    167        1      198    5.479452050E-04
    168        1      199    5.479452050E-04
    169        1      200    5.479452050E-04
    170        1      201    5.479452050E-04
    171        1      202    5.479452050E-04
    172        1      203    5.479452050E-04
    173        1      204    5.479452050E-04
    174        1      205    5.479452050E-04
    175        1      206    5.479452050E-04
    176        1      207    5.479452050E-04
    177        1      208    5.479452050E-04
    178        1      209    5.479452050E-04
    179        1      210    5.479452050E-04
    180        1      211    5.479452050E-04
    181        1      212    5.479452050E-04
    182        1      213    5.479452050E-04
    183        1      214    5.479452050E-04
    184        1      215    5.479452050E-04
    185        1      216    5.479452050E-04
    186        1      217    5.479452050E-04
    187        1      218    5.479452050E-04
    188        1      219    5.479452050E-04
    189        1      220    5.479452050E-04
    190        1      221    5.479452050E-04
    191        1      222    5.479452050E-04
    192        1      223    5.479452050E-04
    193        1      225    5.479452050E-04
    194        1      226    5.479452050E-04
    195        1      227    5.479452050E-04
    196        1      228    5.479452050E-04
    197        1      229    5.479452050E-04
    198        1      230    5.479452050E-04
    199        1      231    5.479452050E-04
    200        1      232    5.479452050E-04
    201        1      233    5.479452050E-04
    202        1      234    5.479452050E-04
    203        1      235    5.479452050E-04
    204        1      236    5.479452050E-04
    205        1      237    5.479452050E-04
    206        1      238    5.479452050E-04
    207        1      239    5.479452050E-04
    208        1      240    5.479452050E-04
    209        1      241    5.479452050E-04
    210        1      242    5.479452050E-04
    211        1      243    5.479452050E-04
    212        1      244    5.479452050E-04
    213        1      245    5.479452050E-04
    214        1      246    5.479452050E-04
    215        1      247    5.479452050E-04
    216        1      248    5.479452050E-04
    217        1      249    5.479452050E-04
    218        1      250    5.479452050E-04
    219        1      251    5.479452050E-04
    220        1      252    5.479452050E-04
    221        1      253    5.479452050E-04
    222        1      254    5.479452050E-04
    223        1      255    5.479452050E-04
    224        1      256    5.479452050E-04
    225        1      257    5.479452050E-04
    226        1      258    5.479452050E-04
    227        1      259    5.479452050E-04
    228        1      260    5.479452050E-04
    229        1      261    5.479452050E-04
    230        1      262    5.479452050E-04
    231        1      263    5.479452050E-04
    232        1      266    5.479452050E-04
    233        1      267    5.479452050E-04
    234        1      268    5.479452050E-04
    235        1      269    5.479452050E-04
    236        1      270    5.479452050E-04
    237        1      271    5.479452050E-04
    238        1      272    5.479452050E-04
    239        1      273    5.479452050E-04
    240        1      274    5.479452050E-04
    241        1      275    5.479452050E-04
    242        1      276    5.479452050E-04
    243        1      277    5.479452050E-04
    244        1      278    5.479452050E-04
    245        1      279    5.479452050E-04
    246        1      280    5.479452050E-04
    247        1      281    5.479452050E-04
    248        1      282    5.479452050E-04
    249        1      283    5.479452050E-04
    250        1      284    5.479452050E-04
    251        1      285    5.479452050E-04
    252        1      286    5.479452050E-04
    253        1      287    5.479452050E-04
    254        1      288    5.479452050E-04
    255        1      289    5.479452050E-04
    256        1      290    5.479452050E-04
    257        1      291    5.479452050E-04
    258        1      292    5.479452050E-04
    259        1      293    5.479452050E-04
    260        1      294    5.479452050E-04
    261        1      295    5.479452050E-04
    262        1      296    5.479452050E-04
    263        1      297    5.479452050E-04
    264        1      298    5.479452050E-04
    265        1      299    5.479452050E-04
    266        1      300    5.479452050E-04
    267        1      301    5.479452050E-04
    268        1      302    5.479452050E-04
    269        1      303    5.479452050E-04
    270        1      304    5.479452050E-04
    271        1      305    5.479452050E-04
    272        1      306    5.479452050E-04
    273        1      307    5.479452050E-04
    274        1      308    5.479452050E-04
    275        1      309    5.479452050E-04
    276        1      310    5.479452050E-04
    277        1      311    5.479452050E-04
    278        1      349    5.479452050E-04
    279        1      350    5.479452050E-04
    280        1      351    5.479452050E-04
    281        1      352    5.479452050E-04
    282        1      353    5.479452050E-04
    283        1      354    5.479452050E-04
    284        1      355    5.479452050E-04
    285        1      356    5.479452050E-04
    286        1      357    5.479452050E-04
    287        1      358    5.479452050E-04
    288        1      359    5.479452050E-04
    289        1      360    5.479452050E-04
    290        1      361    5.479452050E-04
    291        1      362    5.479452050E-04
    292        1      363    5.479452050E-04
    293        1      364    5.479452050E-04
    294        1      365    5.479452050E-04
    295        1      366    5.479452050E-04
    296        1      367    5.479452050E-04
    297        1      368    5.479452050E-04
    298        1      369    5.479452050E-04
    299        1      370    5.479452050E-04
    300        1      371    5.479452050E-04
    301        1      372    5.479452050E-04
    302        1      373    5.479452050E-04
    303        1      374    5.479452050E-04
    304        1      375    5.479452050E-04
    305        1      376    5.479452050E-04
    306        1      377    5.479452050E-04
    307        1      378    5.479452050E-04
    308        1      379    5.479452050E-04
    309        1      380    5.479452050E-04
    310        1      381    5.479452050E-04
    311        1      382    5.479452050E-04
    312        1      383    5.479452050E-04
    313        1      384    5.479452050E-04
    314        1      385    5.479452050E-04
    315        1      386    5.479452050E-04
    316        1      387    5.479452050E-04
    317        1      388    5.479452050E-04
    318        1      389    5.479452050E-04
    319        1      390    5.479452050E-04
    320        1      391    5.479452050E-04
    321        1      392    5.479452050E-04
    322        1      393    5.479452050E-04
    323        1      394    5.479452050E-04
    324        1      395    5.479452050E-04
    325        1      396    5.479452050E-04
    326        1      397    5.479452050E-04
    327        1      398    5.479452050E-04
    328        1      399    5.479452050E-04
    329        1      400    5.479452050E-04
    330        1      401    5.479452050E-04
    331        1      402    5.479452050E-04
    332        1      403    5.479452050E-04
    333        1      404    5.479452050E-04
    334        1      405    5.479452050E-04
    335        1      406    5.479452050E-04
    336        1      407    5.479452050E-04
    337        1      408    5.479452050E-04
    338        1      409    5.479452050E-04
    339        1      410    5.479452050E-04
    340        1      411    5.479452050E-04
    341        1      412    5.479452050E-04
    342        1      413    5.479452050E-04
    343        1      414    5.479452050E-04
    344        1      415    5.479452050E-04
    345        1      416    5.479452050E-04
    346        1      417    5.479452050E-04
    347        1      418    5.479452050E-04
    348        1      419    5.479452050E-04
    349        1      420    5.479452050E-04
    350        1      421    5.479452050E-04
    351        1      422    5.479452050E-04
    352        1      423    5.479452050E-04
    353        1      424    5.479452050E-04
    354        1      425    5.479452050E-04
    355        1      426    5.479452050E-04
    356        1      427    5.479452050E-04
    357        1      430    5.479452050E-04
    358        1      431    5.479452050E-04
    359        1      432    5.479452050E-04
    360        1      433    5.479452050E-04
    361        1      434    5.479452050E-04
    362        1      435    5.479452050E-04
    363        1      436    5.479452050E-04
    364        1      437    5.479452050E-04
    365        1      438    5.479452050E-04
    366        1      439    5.479452050E-04
    367        1      440    5.479452050E-04
    368        1      441    5.479452050E-04
    369        1      442    5.479452050E-04
    370        1      443    5.479452050E-04
    371        1      444    5.479452050E-04
    372        1      445    5.479452050E-04
    373        1      446    5.479452050E-04
    374        1      447    5.479452050E-04
    375        1      448    5.479452050E-04
    376        1      449    5.479452050E-04
    377        1      450    5.479452050E-04
    378        1      451    5.479452050E-04
    379        1      452    5.479452050E-04
    380        1      453    5.479452050E-04
    381        1      454    5.479452050E-04
    382        1      455    5.479452050E-04
    383        1      456    5.479452050E-04
    384        1      457    5.479452050E-04
    385        1      458    5.479452050E-04
    386        1      459    5.479452050E-04
    387        1      460    5.479452050E-04
    388        1      461    5.479452050E-04
    389        1      462    5.479452050E-04
    390        1      463    5.479452050E-04
    391        1      464    5.479452050E-04
    392        1      465    5.479452050E-04
    393        1      466    5.479452050E-04
    394        1      467    5.479452050E-04
    395        1      468    5.479452050E-04
    396        1      469    5.479452050E-04
    397        1      470    5.479452050E-04
    398        1      471    5.479452050E-04
    399        1      472    5.479452050E-04
    400        1      473    5.479452050E-04
    401        1      474    5.479452050E-04
    402        1      475    5.479452050E-04
    403        1      476    5.479452050E-04
    404        1      477    5.479452050E-04
    405        1      478    5.479452050E-04
    406        1      479    5.479452050E-04
    407        1      480    5.479452050E-04
    408        1      481    5.479452050E-04
    409        1      482    5.479452050E-04
    410        1      483    5.479452050E-04
    411        1      484    5.479452050E-04
    412        1      485    5.479452050E-04
    413        1      486    5.479452050E-04
    414        1      487    5.479452050E-04
    415        1      488    5.479452050E-04
    416        1      489    5.479452050E-04
    417        1      490    5.479452050E-04
    418        1      491    5.479452050E-04
    419        1      492    5.479452050E-04
    420        1      493    5.479452050E-04
    421        1      494    5.479452050E-04
    422        1      495    5.479452050E-04
    423        1      496    5.479452050E-04
    424        1      497    5.479452050E-04
    425        1      498    5.479452050E-04
    426        1      499    5.479452050E-04
    427        1      500    5.479452050E-04
    428        1      501    5.479452050E-04
    429        1      502    5.479452050E-04
    430        1      503    5.479452050E-04
    431        1      506    5.479452050E-04
    432        1      507    5.479452050E-04
    433        1      508    5.479452050E-04
    434        1      509    5.479452050E-04
    435        1      510    5.479452050E-04
    436        1      511    5.479452050E-04
    437        1      512    5.479452050E-04
    438        1      513    5.479452050E-04
    439        1      514    5.479452050E-04
    440        1      515    5.479452050E-04
    441        1      516    5.479452050E-04
    442        1      517    5.479452050E-04
    443        1      518    5.479452050E-04
    444        1      519    5.479452050E-04
    445        1      520    5.479452050E-04
    446        1      521    5.479452050E-04
    447        1      522    5.479452050E-04
    448        1      523    5.479452050E-04
    449        1      524    5.479452050E-04
    450        1      525    5.479452050E-04
    451        1      526    5.479452050E-04
    452        1      527    5.479452050E-04
    453        1      528    5.479452050E-04
    454        1      529    5.479452050E-04
    455        1      530    5.479452050E-04
    456        1      531    5.479452050E-04
    457        1      532    5.479452050E-04
    458        1      533    5.479452050E-04
    459        1      534    5.479452050E-04
    460        1      535    5.479452050E-04
    461        1      536    5.479452050E-04
    462        1      537    5.479452050E-04
    463        1      538    5.479452050E-04
    464        1      539    5.479452050E-04
    465        1      540    5.479452050E-04
    466        1      541    5.479452050E-04
    467        1      542    5.479452050E-04
    468        1      543    5.479452050E-04
    469        1      544    5.479452050E-04
    470        1      545    5.479452050E-04
    471        1      546    5.479452050E-04
    472        1      547    5.479452050E-04
    473        1      548    5.479452050E-04
    474        1      549    5.479452050E-04
    475        1      550    5.479452050E-04
    476        1      551    5.479452050E-04
    477        1      552    5.479452050E-04
    478        1      553    5.479452050E-04
    479        1      554    5.479452050E-04
    480        1      555    5.479452050E-04
    481        1      556    5.479452050E-04
    482        1      557    5.479452050E-04
    483        1      558    5.479452050E-04
    484        1      559    5.479452050E-04
    485        1      560    5.479452050E-04
    486        1      561    5.479452050E-04
    487        1      562    5.479452050E-04
    488        1      563    5.479452050E-04
    489        1      564    5.479452050E-04
    490        1      565    5.479452050E-04
    491        1      566    5.479452050E-04
    492        1      567    5.479452050E-04
    493        1      568    5.479452050E-04
    494        1      569    5.479452050E-04
    495        1      570    5.479452050E-04
    496        1      571    5.479452050E-04
    497        1      572    5.479452050E-04
    498        1      573    5.479452050E-04
    499        1      574    5.479452050E-04
    500        1      575    5.479452050E-04
    501        1      576    5.479452050E-04
    502        1      577    5.479452050E-04
    503        1      578    5.479452050E-04
    504        1      579    5.479452050E-04
    505        1      580    5.479452050E-04
    506        1      581    5.479452050E-04
    507        1      582    5.479452050E-04
    508        1      583    5.479452050E-04
    509        1      586    5.479452050E-04
    510        1      587    5.479452050E-04
    511        1      588    5.479452050E-04
    512        1      589    5.479452050E-04
    513        1      590    5.479452050E-04
    514        1      591    5.479452050E-04
    515        1      592    5.479452050E-04
    516        1      593    5.479452050E-04
    517        1      594    5.479452050E-04
    518        1      595    5.479452050E-04
    519        1      596    5.479452050E-04
    520        1      597    5.479452050E-04
    521        1      598    5.479452050E-04
    522        1      599    5.479452050E-04
    523        1      600    5.479452050E-04
    524        1      601    5.479452050E-04
    525        1      602    5.479452050E-04
    526        1      603    5.479452050E-04
    527        1      604    5.479452050E-04
    528        1      605    5.479452050E-04
    529        1      606    5.479452050E-04
    530        1      607    5.479452050E-04
    531        1      608    5.479452050E-04
    532        1      609    5.479452050E-04
    533        1      610    5.479452050E-04
    534        1      611    5.479452050E-04
    535        1      612    5.479452050E-04
    536        1      613    5.479452050E-04
    537        1      614    5.479452050E-04
    538        1      615    5.479452050E-04
    539        1      616    5.479452050E-04
    540        1      617    5.479452050E-04
    541        1      618    5.479452050E-04
    542        1      619    5.479452050E-04
    543        1      620    5.479452050E-04
    544        1      621    5.479452050E-04
    545        1      622    5.479452050E-04
    546        1      623    5.479452050E-04
    547        1      624    5.479452050E-04
    548        1      625    5.479452050E-04
    549        1      626    5.479452050E-04
    550        1      627    5.479452050E-04
    551        1      628    5.479452050E-04
    552        1      629    5.479452050E-04
    553        1      630    5.479452050E-04
    554        1      631    5.479452050E-04
    555        1      632    5.479452050E-04
    556        1      633    5.479452050E-04
    557        1      634    5.479452050E-04
    558        1      635    5.479452050E-04
    559        1      636    5.479452050E-04
    560        1      637    5.479452050E-04
    561        1      638    5.479452050E-04
    562        1      639    5.479452050E-04
    563        1      640    5.479452050E-04
    564        1      641    5.479452050E-04
    565        1      642    5.479452050E-04
    566        1      643    5.479452050E-04
    567        1      644    5.479452050E-04
    568        1      645    5.479452050E-04
    569        1      646    5.479452050E-04
    570        1      647    5.479452050E-04
    571        1      648    5.479452050E-04
    572        1      649    5.479452050E-04
    573        1      650    5.479452050E-04
    574        1      651    5.479452050E-04
    575        1      652    5.479452050E-04
    576        1      653    5.479452050E-04
    577        1      654    5.479452050E-04
    578        1      655    5.479452050E-04
    579        1      656    5.479452050E-04
    580        1      657    5.479452050E-04
    581        1      658    5.479452050E-04
    582        1      659    5.479452050E-04
    583        1      660    5.479452050E-04
    584        1      661    5.479452050E-04
    585        1      662    5.479452050E-04
    586        1      663    5.479452050E-04
    587        1      664    5.479452050E-04
    588        1      667    5.479452050E-04
    589        1      668    5.479452050E-04
    590        1      669    5.479452050E-04
    591        1      670    5.479452050E-04
    592        1      671    5.479452050E-04
    593        1      672    5.479452050E-04
    594        1      673    5.479452050E-04
    595        1      674    5.479452050E-04
    596        1      675    5.479452050E-04
    597        1      676    5.479452050E-04
    598        1      677    5.479452050E-04
    599        1      678    5.479452050E-04
    600        1      679    5.479452050E-04
    601        1      680    5.479452050E-04
    602        1      681    5.479452050E-04
    603        1      682    5.479452050E-04
    604        1      683    5.479452050E-04
    605        1      684    5.479452050E-04
    606        1      685    5.479452050E-04
    607        1      686    5.479452050E-04
    608        1      687    5.479452050E-04
    609        1      688    5.479452050E-04
    610        1      689    5.479452050E-04
    611        1      690    5.479452050E-04
    612        1      691    5.479452050E-04
    613        1      692    5.479452050E-04
    614        1      693    5.479452050E-04
    615        1      694    5.479452050E-04
    616        1      695    5.479452050E-04
    617        1      696    5.479452050E-04
    618        1      697    5.479452050E-04
    619        1      698    5.479452050E-04
    620        1      699    5.479452050E-04
    621        1      700    5.479452050E-04
    622        1      701    5.479452050E-04
    623        1      702    5.479452050E-04
    624        1      703    5.479452050E-04
    625        1      704    5.479452050E-04
    626        1      705    5.479452050E-04
    627        1      706    5.479452050E-04
    628        1      707    5.479452050E-04
    629        1      708    5.479452050E-04
    630        1      709    5.479452050E-04
    631        1      710    5.479452050E-04
    632        1      711    5.479452050E-04
    633        1      712    5.479452050E-04
    634        1      713    5.479452050E-04
    635        1      714    5.479452050E-04
    636        1      715    5.479452050E-04
    637        1      716    5.479452050E-04
    638        1      717    5.479452050E-04
    639        1      718    5.479452050E-04
    640        1      719    5.479452050E-04
    641        1      720    5.479452050E-04
    642        1      721    5.479452050E-04
    643        1      722    5.479452050E-04
    644        1      723    5.479452050E-04
    645        1      724    5.479452050E-04
    646        1      725    5.479452050E-04
    647        1      726    5.479452050E-04
    648        1      727    5.479452050E-04
    649        1      728    5.479452050E-04
    650        1      729    5.479452050E-04
    651        1      730    5.479452050E-04
    652        1      731    5.479452050E-04
    653        1      732    5.479452050E-04
    654        1      733    5.479452050E-04
    655        1      734    5.479452050E-04
    656        1      735    5.479452050E-04
    657        1      736    5.479452050E-04
    658        1      737    5.479452050E-04
    659        1      738    5.479452050E-04
    660        1      739    5.479452050E-04
    661        1      740    5.479452050E-04
    662        1      741    5.479452050E-04
    663        1      742    5.479452050E-04
    664        1      743    5.479452050E-04
    665        1      744    5.479452050E-04
    666        1      745    5.479452050E-04
    667        1      746    5.479452050E-04
    668        1      749    5.479452050E-04
    669        1      750    5.479452050E-04
    670        1      751    5.479452050E-04
    671        1      752    5.479452050E-04
    672        1      753    5.479452050E-04
    673        1      754    5.479452050E-04
    674        1      755    5.479452050E-04
    675        1      756    5.479452050E-04
    676        1      757    5.479452050E-04
    677        1      758    5.479452050E-04
    678        1      759    5.479452050E-04
    679        1      760    5.479452050E-04
    680        1      761    5.479452050E-04
    681        1      762    5.479452050E-04
    682        1      763    5.479452050E-04
    683        1      764    5.479452050E-04
    684        1      765    5.479452050E-04
    685        1      766    5.479452050E-04
    686        1      767    5.479452050E-04
    687        1      768    5.479452050E-04
    688        1      769    5.479452050E-04
    689        1      770    5.479452050E-04
    690        1      771    5.479452050E-04
    691        1      772    5.479452050E-04
    692        1      773    5.479452050E-04
    693        1      774    5.479452050E-04
    694        1      775    5.479452050E-04
    695        1      776    5.479452050E-04
    696        1      777    5.479452050E-04
    697        1      778    5.479452050E-04
    698        1      779    5.479452050E-04
    699        1      780    5.479452050E-04
    700        1      781    5.479452050E-04
    701        1      782    5.479452050E-04
    702        1      783    5.479452050E-04
    703        1      784    5.479452050E-04
    704        1      785    5.479452050E-04
    705        1      786    5.479452050E-04
    706        1      787    5.479452050E-04
    707        1      788    5.479452050E-04
    708        1      789    5.479452050E-04
    709        1      790    5.479452050E-04
    710        1      791    5.479452050E-04
    711        1      792    5.479452050E-04
    712        1      793    5.479452050E-04
    713        1      794    5.479452050E-04
    714        1      795    5.479452050E-04
    715        1      796    5.479452050E-04
    716        1      797    5.479452050E-04
    717        1      798    5.479452050E-04
    718        1      799    5.479452050E-04
    719        1      800    5.479452050E-04
    720        1      801    5.479452050E-04
    721        1      802    5.479452050E-04
    722        1      803    5.479452050E-04
    723        1      804    5.479452050E-04
    724        1      805    5.479452050E-04
    725        1      806    5.479452050E-04
    726        1      807    5.479452050E-04
    727        1      808    5.479452050E-04
    728        1      809    5.479452050E-04
    729        1      810    5.479452050E-04
    730        1      811    5.479452050E-04
    731        1      812    5.479452050E-04
    732        1      813    5.479452050E-04
    733        1      814    5.479452050E-04
    734        1      815    5.479452050E-04
    735        1      816    5.479452050E-04
    736        1      817    5.479452050E-04
    737        1      818    5.479452050E-04
    738        1      819    5.479452050E-04
    739        1      820    5.479452050E-04
    740        1      821    5.479452050E-04
    741        1      822    5.479452050E-04
    742        1      823    5.479452050E-04
    743        1      824    5.479452050E-04
    744        1      825    5.479452050E-04
    745        1      826    5.479452050E-04
    746        1      827    5.479452050E-04
    747        1      828    5.479452050E-04
    748        1      829    5.479452050E-04
    749        1      832    5.479452050E-04
    750        1      833    5.479452050E-04
    751        1      834    5.479452050E-04
    752        1      835    5.479452050E-04
    753        1      836    5.479452050E-04
    754        1      837    5.479452050E-04
    755        1      838    5.479452050E-04
    756        1      839    5.479452050E-04
    757        1      840    5.479452050E-04
    758        1      841    5.479452050E-04
    759        1      842    5.479452050E-04
    760        1      843    5.479452050E-04
    761        1      844    5.479452050E-04
    762        1      845    5.479452050E-04
    763        1      846    5.479452050E-04
    764        1      847    5.479452050E-04
    765        1      848    5.479452050E-04
    766        1      849    5.479452050E-04
    767        1      850    5.479452050E-04
    768        1      851    5.479452050E-04
    769        1      852    5.479452050E-04
    770        1      853    5.479452050E-04
    771        1      854    5.479452050E-04
    772        1      855    5.479452050E-04
    773        1      856    5.479452050E-04
    774        1      857    5.479452050E-04
    775        1      858    5.479452050E-04
    776        1      859    5.479452050E-04
    777        1      860    5.479452050E-04
    778        1      861    5.479452050E-04
    779        1      862    5.479452050E-04
    780        1      863    5.479452050E-04
    781        1      864    5.479452050E-04
    782        1      865    5.479452050E-04
    783        1      866    5.479452050E-04
    784        1      867    5.479452050E-04
    785        1      868    5.479452050E-04
    786        1      869    5.479452050E-04
    787        1      870    5.479452050E-04
    788        1      871    5.479452050E-04
    789        1      872    5.479452050E-04
    790        1      873    5.479452050E-04
    791        1      874    5.479452050E-04
    792        1      875    5.479452050E-04
    793        1      876    5.479452050E-04
    794        1      877    5.479452050E-04
    795        1      878    5.479452050E-04
    796        1      879    5.479452050E-04
    797        1      880    5.479452050E-04
    798        1      881    5.479452050E-04
    799        1      882    5.479452050E-04
    800        1      883    5.479452050E-04
    801        1      884    5.479452050E-04
    802        1      885    5.479452050E-04
    803        1      886    5.479452050E-04
    804        1      887    5.479452050E-04
    805        1      888    5.479452050E-04
    806        1      889    5.479452050E-04
    807        1      890    5.479452050E-04
    808        1      891    5.479452050E-04
    809        1      892    5.479452050E-04
    810        1      893    5.479452050E-04
    811        1      894    5.479452050E-04
    812        1      895    5.479452050E-04
    813        1      896    5.479452050E-04
    814        1      897    5.479452050E-04
    815        1      898    5.479452050E-04
    816        1      899    5.479452050E-04
    817        1      900    5.479452050E-04
    818        1      901    5.479452050E-04
    819        1      902    5.479452050E-04
    820        1      903    5.479452050E-04
    821        1      904    5.479452050E-04
    822        1      905    5.479452050E-04
    823        1      906    5.479452050E-04
    824        1      907    5.479452050E-04
    825        1      908    5.479452050E-04
    826        1      909    5.479452050E-04
    827        1      910    5.479452050E-04
    828        1      911    5.479452050E-04
    829        1      912    5.479452050E-04
    830        1      915    5.479452050E-04
    831        1      916    5.479452050E-04
    832        1      917    5.479452050E-04
    833        1      918    5.479452050E-04
    834        1      919    5.479452050E-04
    835        1      920    5.479452050E-04
    836        1      921    5.479452050E-04
    837        1      922    5.479452050E-04
    838        1      923    5.479452050E-04
    839        1      924    5.479452050E-04
    840        1      925    5.479452050E-04
    841        1      926    5.479452050E-04
    842        1      927    5.479452050E-04
    843        1      928    5.479452050E-04
    844        1      929    5.479452050E-04
    845        1      930    5.479452050E-04
    846        1      931    5.479452050E-04
    847        1      932    5.479452050E-04
    848        1      933    5.479452050E-04
    849        1      934    5.479452050E-04
    850        1      935    5.479452050E-04
    851        1      936    5.479452050E-04
    852        1      937    5.479452050E-04
    853        1      938    5.479452050E-04
    854        1      939    5.479452050E-04
    855        1      940    5.479452050E-04
    856        1      941    5.479452050E-04
    857        1      942    5.479452050E-04
    858        1      943    5.479452050E-04
    859        1      944    5.479452050E-04
    860        1      945    5.479452050E-04
    861        1      946    5.479452050E-04
    862        1      947    5.479452050E-04
    863        1      948    5.479452050E-04
    864        1      949    5.479452050E-04
    865        1      950    5.479452050E-04
    866        1      951    5.479452050E-04
    867        1      952    5.479452050E-04
    868        1      953    5.479452050E-04
    869        1      954    5.479452050E-04
    870        1      955    5.479452050E-04
    871        1      956    5.479452050E-04
    872        1      957    5.479452050E-04
    873        1      958    5.479452050E-04
    874        1      959    5.479452050E-04
    875        1      960    5.479452050E-04
    876        1      961    5.479452050E-04
    877        1      962    5.479452050E-04
    878        1      963    5.479452050E-04
    879        1      964    5.479452050E-04
    880        1      965    5.479452050E-04
    881        1      966    5.479452050E-04
    882        1      967    5.479452050E-04
    883        1      968    5.479452050E-04
    884        1      969    5.479452050E-04
    885        1      970    5.479452050E-04
    886        1      971    5.479452050E-04
    887        1      972    5.479452050E-04
    888        1      973    5.479452050E-04
    889        1      974    5.479452050E-04
    890        1      975    5.479452050E-04
    891        1      976    5.479452050E-04
    892        1      977    5.479452050E-04
    893        1      978    5.479452050E-04
    894        1      979    5.479452050E-04
    895        1      980    5.479452050E-04
    896        1      981    5.479452050E-04
    897        1      982    5.479452050E-04
    898        1      983    5.479452050E-04
    899        1      984    5.479452050E-04
    900        1      985    5.479452050E-04
    901        1      986    5.479452050E-04
    902        1      987    5.479452050E-04
    903        1      988    5.479452050E-04
    904        1      989    5.479452050E-04
    905        1      990    5.479452050E-04
    906        1      991    5.479452050E-04
    907        1      992    5.479452050E-04
    908        1      993    5.479452050E-04
    909        1      994    5.479452050E-04
    910        1      995    5.479452050E-04
    911        1      998    5.479452050E-04
    912        1      999    5.479452050E-04
    913        1     1000    5.479452050E-04
    914        1     1001    5.479452050E-04
    915        1     1002    5.479452050E-04
    916        1     1003    5.479452050E-04
    917        1     1004    5.479452050E-04
    918        1     1005    5.479452050E-04
    919        1     1006    5.479452050E-04
    920        1     1007    5.479452050E-04
    921        1     1008    5.479452050E-04
    922        1     1009    5.479452050E-04
    923        1     1010    5.479452050E-04
    924        1     1011    5.479452050E-04
    925        1     1012    5.479452050E-04
    926        1     1013    5.479452050E-04
    927        1     1014    5.479452050E-04
    928        1     1015    5.479452050E-04
    929        1     1016    5.479452050E-04
    930        1     1017    5.479452050E-04
    931        1     1018    5.479452050E-04
    932        1     1019    5.479452050E-04
    933        1     1020    5.479452050E-04
    934        1     1021    5.479452050E-04
    935        1     1022    5.479452050E-04
    936        1     1023    5.479452050E-04
    937        1     1024    5.479452050E-04
    938        1     1025    5.479452050E-04
    939        1     1026    5.479452050E-04
    940        1     1027    5.479452050E-04
    941        1     1028    5.479452050E-04
    942        1     1029    5.479452050E-04
    943        1     1030    5.479452050E-04
    944        1     1031    5.479452050E-04
    945        1     1032    5.479452050E-04
    946        1     1033    5.479452050E-04
    947        1     1034    5.479452050E-04
    948        1     1035    5.479452050E-04
    949        1     1036    5.479452050E-04
    950        1     1037    5.479452050E-04
    951        1     1038    5.479452050E-04
    952        1     1039    5.479452050E-04
    953        1     1040    5.479452050E-04
    954        1     1041    5.479452050E-04
    955        1     1042    5.479452050E-04
    956        1     1043    5.479452050E-04
    957        1     1044    5.479452050E-04
    958        1     1045    5.479452050E-04
    959        1     1046    5.479452050E-04
    960        1     1047    5.479452050E-04
    961        1     1048    5.479452050E-04
    962        1     1049    5.479452050E-04
    963        1     1050    5.479452050E-04
    964        1     1051    5.479452050E-04
    965        1     1052    5.479452050E-04
    966        1     1053    5.479452050E-04
    967        1     1054    5.479452050E-04
    968        1     1055    5.479452050E-04
    969        1     1056    5.479452050E-04
    970        1     1057    5.479452050E-04
    971        1     1058    5.479452050E-04
    972        1     1059    5.479452050E-04
    973        1     1060    5.479452050E-04
    974        1     1061    5.479452050E-04
    975        1     1062    5.479452050E-04
    976        1     1063    5.479452050E-04
    977        1     1064    5.479452050E-04
    978        1     1065    5.479452050E-04
    979        1     1066    5.479452050E-04
    980        1     1067    5.479452050E-04
    981        1     1068    5.479452050E-04
    982        1     1069    5.479452050E-04
    983        1     1070    5.479452050E-04
    984        1     1071    5.479452050E-04
    985        1     1072    5.479452050E-04
    986        1     1073    5.479452050E-04
    987        1     1074    5.479452050E-04
    988        1     1075    5.479452050E-04
    989        1     1078    5.479452050E-04
    990        1     1079    5.479452050E-04
    991        1     1080    5.479452050E-04
    992        1     1081    5.479452050E-04
    993        1     1082    5.479452050E-04
    994        1     1083    5.479452050E-04
    995        1     1084    5.479452050E-04
    996        1     1085    5.479452050E-04
    997        1     1086    5.479452050E-04
    998        1     1087    5.479452050E-04
    999        1     1088    5.479452050E-04
    1000       1     1089    5.479452050E-04
    1001       1     1090    5.479452050E-04
    1002       1     1091    5.479452050E-04
    1003       1     1092    5.479452050E-04
    1004       1     1093    5.479452050E-04
    1005       1     1094    5.479452050E-04
    1006       1     1095    5.479452050E-04
    1007       1     1096    5.479452050E-04
    1008       1     1097    5.479452050E-04
    1009       1     1098    5.479452050E-04
    1010       1     1099    5.479452050E-04
    1011       1     1100    5.479452050E-04
    1012       1     1101    5.479452050E-04
    1013       1     1102    5.479452050E-04
    1014       1     1103    5.479452050E-04
    1015       1     1104    5.479452050E-04
    1016       1     1105    5.479452050E-04
    1017       1     1106    5.479452050E-04
    1018       1     1107    5.479452050E-04
    1019       1     1108    5.479452050E-04
    1020       1     1109    5.479452050E-04
    1021       1     1110    5.479452050E-04
    1022       1     1111    5.479452050E-04
    1023       1     1112    5.479452050E-04
    1024       1     1113    5.479452050E-04
    1025       1     1114    5.479452050E-04
    1026       1     1115    5.479452050E-04
    1027       1     1116    5.479452050E-04
    1028       1     1117    5.479452050E-04
    1029       1     1118    5.479452050E-04
    1030       1     1119    5.479452050E-04
    1031       1     1120    5.479452050E-04
    1032       1     1121    5.479452050E-04
    1033       1     1122    5.479452050E-04
    1034       1     1123    5.479452050E-04
    1035       1     1124    5.479452050E-04
    1036       1     1125    5.479452050E-04
    1037       1     1126    5.479452050E-04
    1038       1     1127    5.479452050E-04
    1039       1     1128    5.479452050E-04
    1040       1     1129    5.479452050E-04
    1041       1     1130    5.479452050E-04
    1042       1     1131    5.479452050E-04
    1043       1     1132    5.479452050E-04
    1044       1     1133    5.479452050E-04
    1045       1     1134    5.479452050E-04
    1046       1     1135    5.479452050E-04
    1047       1     1136    5.479452050E-04
    1048       1     1137    5.479452050E-04
    1049       1     1138    5.479452050E-04
    1050       1     1139    5.479452050E-04
    1051       1     1140    5.479452050E-04
    1052       1     1141    5.479452050E-04
    1053       1     1142    5.479452050E-04
    1054       1     1143    5.479452050E-04
    1055       1     1144    5.479452050E-04
    1056       1     1145    5.479452050E-04
    1057       1     1146    5.479452050E-04
    1058       1     1147    5.479452050E-04
    1059       1     1148    5.479452050E-04
    1060       1     1149    5.479452050E-04
    1061       1     1150    5.479452050E-04
    1062       1     1151    5.479452050E-04
    1063       1     1152    5.479452050E-04
    1064       1     1153    5.479452050E-04
    1065       1     1154    5.479452050E-04
    1066       1     1155    5.479452050E-04
    1067       1     1158    5.479452050E-04
    1068       1     1159    5.479452050E-04
    1069       1     1160    5.479452050E-04
    1070       1     1161    5.479452050E-04
    1071       1     1162    5.479452050E-04
    1072       1     1163    5.479452050E-04
    1073       1     1164    5.479452050E-04
    1074       1     1165    5.479452050E-04
    1075       1     1166    5.479452050E-04
    1076       1     1167    5.479452050E-04
    1077       1     1168    5.479452050E-04
    1078       1     1169    5.479452050E-04
    1079       1     1170    5.479452050E-04
    1080       1     1171    5.479452050E-04
    1081       1     1172    5.479452050E-04
    1082       1     1173    5.479452050E-04
    1083       1     1174    5.479452050E-04
    1084       1     1175    5.479452050E-04
    1085       1     1176    5.479452050E-04
    1086       1     1177    5.479452050E-04
    1087       1     1178    5.479452050E-04
    1088       1     1179    5.479452050E-04
    1089       1     1180    5.479452050E-04
    1090       1     1181    5.479452050E-04
    1091       1     1182    5.479452050E-04
    1092       1     1183    5.479452050E-04
    1093       1     1184    5.479452050E-04
    1094       1     1185    5.479452050E-04
    1095       1     1186    5.479452050E-04
    1096       1     1187    5.479452050E-04
    1097       1     1188    5.479452050E-04
    1098       1     1189    5.479452050E-04
    1099       1     1190    5.479452050E-04
    1100       1     1191    5.479452050E-04
    1101       1     1192    5.479452050E-04
    1102       1     1193    5.479452050E-04
    1103       1     1194    5.479452050E-04
    1104       1     1195    5.479452050E-04
    1105       1     1196    5.479452050E-04
    1106       1     1197    5.479452050E-04
    1107       1     1198    5.479452050E-04
    1108       1     1199    5.479452050E-04
    1109       1     1200    5.479452050E-04
    1110       1     1201    5.479452050E-04
    1111       1     1202    5.479452050E-04
    1112       1     1203    5.479452050E-04
    1113       1     1204    5.479452050E-04
    1114       1     1205    5.479452050E-04
    1115       1     1206    5.479452050E-04
    1116       1     1207    5.479452050E-04
    1117       1     1208    5.479452050E-04
    1118       1     1209    5.479452050E-04
    1119       1     1210    5.479452050E-04
    1120       1     1211    5.479452050E-04
    1121       1     1212    5.479452050E-04
    1122       1     1213    5.479452050E-04
    1123       1     1214    5.479452050E-04
    1124       1     1215    5.479452050E-04
    1125       1     1216    5.479452050E-04
    1126       1     1217    5.479452050E-04
    1127       1     1218    5.479452050E-04
    1128       1     1219    5.479452050E-04
    1129       1     1220    5.479452050E-04
    1130       1     1221    5.479452050E-04
    1131       1     1222    5.479452050E-04
    1132       1     1223    5.479452050E-04
    1133       1     1224    5.479452050E-04
    1134       1     1225    5.479452050E-04
    1135       1     1226    5.479452050E-04
    1136       1     1227    5.479452050E-04
    1137       1     1228    5.479452050E-04
    1138       1     1229    5.479452050E-04
    1139       1     1230    5.479452050E-04
    1140       1     1231    5.479452050E-04
    1141       1     1232    5.479452050E-04
    1142       1     1233    5.479452050E-04
    1143       1     1234    5.479452050E-04
    1144       1     1235    5.479452050E-04
    1145       1     1236    5.479452050E-04
    1146       1     1237    5.479452050E-04
    1147       1     1238    5.479452050E-04
    1148       1     1241    5.479452050E-04
    1149       1     1242    5.479452050E-04
    1150       1     1243    5.479452050E-04
    1151       1     1244    5.479452050E-04
    1152       1     1245    5.479452050E-04
    1153       1     1246    5.479452050E-04
    1154       1     1247    5.479452050E-04
    1155       1     1248    5.479452050E-04
    1156       1     1249    5.479452050E-04
    1157       1     1250    5.479452050E-04
    1158       1     1251    5.479452050E-04
    1159       1     1252    5.479452050E-04
    1160       1     1253    5.479452050E-04
    1161       1     1254    5.479452050E-04
    1162       1     1255    5.479452050E-04
    1163       1     1256    5.479452050E-04
    1164       1     1257    5.479452050E-04
    1165       1     1258    5.479452050E-04
    1166       1     1259    5.479452050E-04
    1167       1     1260    5.479452050E-04
    1168       1     1261    5.479452050E-04
    1169       1     1262    5.479452050E-04
    1170       1     1263    5.479452050E-04
    1171       1     1264    5.479452050E-04
    1172       1     1265    5.479452050E-04
    1173       1     1266    5.479452050E-04
    1174       1     1267    5.479452050E-04
    1175       1     1268    5.479452050E-04
    1176       1     1269    5.479452050E-04
    1177       1     1270    5.479452050E-04
    1178       1     1271    5.479452050E-04
    1179       1     1272    5.479452050E-04
    1180       1     1273    5.479452050E-04
    1181       1     1274    5.479452050E-04
    1182       1     1275    5.479452050E-04
    1183       1     1276    5.479452050E-04
    1184       1     1277    5.479452050E-04
    1185       1     1278    5.479452050E-04
    1186       1     1279    5.479452050E-04
    1187       1     1280    5.479452050E-04
    1188       1     1281    5.479452050E-04
    1189       1     1282    5.479452050E-04
    1190       1     1283    5.479452050E-04
    1191       1     1284    5.479452050E-04
    1192       1     1285    5.479452050E-04
    1193       1     1286    5.479452050E-04
    1194       1     1287    5.479452050E-04
    1195       1     1288    5.479452050E-04
    1196       1     1289    5.479452050E-04
    1197       1     1290    5.479452050E-04
    1198       1     1291    5.479452050E-04
    1199       1     1292    5.479452050E-04
    1200       1     1293    5.479452050E-04
    1201       1     1294    5.479452050E-04
    1202       1     1295    5.479452050E-04
    1203       1     1296    5.479452050E-04
    1204       1     1297    5.479452050E-04
    1205       1     1298    5.479452050E-04
    1206       1     1299    5.479452050E-04
    1207       1     1300    5.479452050E-04
    1208       1     1301    5.479452050E-04
    1209       1     1302    5.479452050E-04
    1210       1     1303    5.479452050E-04
    1211       1     1304    5.479452050E-04
    1212       1     1305    5.479452050E-04
    1213       1     1306    5.479452050E-04
    1214       1     1307    5.479452050E-04
    1215       1     1308    5.479452050E-04
    1216       1     1309    5.479452050E-04
    1217       1     1310    5.479452050E-04
    1218       1     1311    5.479452050E-04
    1219       1     1312    5.479452050E-04
    1220       1     1313    5.479452050E-04
    1221       1     1314    5.479452050E-04
    1222       1     1315    5.479452050E-04
    1223       1     1316    5.479452050E-04
    1224       1     1317    5.479452050E-04
    1225       1     1318    5.479452050E-04
    1226       1     1320    5.479452050E-04
    1227       1     1321    5.479452050E-04
    1228       1     1322    5.479452050E-04
    1229       1     1323    5.479452050E-04
    1230       1     1324    5.479452050E-04
    1231       1     1325    5.479452050E-04
    1232       1     1326    5.479452050E-04
    1233       1     1327    5.479452050E-04
    1234       1     1328    5.479452050E-04
    1235       1     1329    5.479452050E-04
    1236       1     1330    5.479452050E-04
    1237       1     1331    5.479452050E-04
    1238       1     1332    5.479452050E-04
    1239       1     1333    5.479452050E-04
    1240       1     1334    5.479452050E-04
    1241       1     1335    5.479452050E-04
    1242       1     1336    5.479452050E-04
    1243       1     1337    5.479452050E-04
    1244       1     1338    5.479452050E-04
    1245       1     1339    5.479452050E-04
    1246       1     1340    5.479452050E-04
    1247       1     1341    5.479452050E-04
    1248       1     1342    5.479452050E-04
    1249       1     1343    5.479452050E-04
    1250       1     1344    5.479452050E-04
    1251       1     1345    5.479452050E-04
    1252       1     1346    5.479452050E-04
    1253       1     1347    5.479452050E-04
    1254       1     1348    5.479452050E-04
    1255       1     1349    5.479452050E-04
    1256       1     1350    5.479452050E-04
    1257       1     1351    5.479452050E-04
    1258       1     1352    5.479452050E-04
    1259       1     1353    5.479452050E-04
    1260       1     1354    5.479452050E-04
    1261       1     1355    5.479452050E-04
    1262       1     1356    5.479452050E-04
    1263       1     1357    5.479452050E-04
    1264       1     1358    5.479452050E-04
    1265       1     1359    5.479452050E-04
    1266       1     1360    5.479452050E-04
    1267       1     1361    5.479452050E-04
    1268       1     1362    5.479452050E-04
    1269       1     1363    5.479452050E-04
    1270       1     1364    5.479452050E-04
    1271       1     1365    5.479452050E-04
    1272       1     1366    5.479452050E-04
    1273       1     1367    5.479452050E-04
    1274       1     1368    5.479452050E-04
    1275       1     1369    5.479452050E-04
    1276       1     1370    5.479452050E-04
    1277       1     1371    5.479452050E-04
    1278       1     1372    5.479452050E-04
    1279       1     1373    5.479452050E-04
    1280       1     1374    5.479452050E-04
    1281       1     1375    5.479452050E-04
    1282       1     1376    5.479452050E-04
    1283       1     1377    5.479452050E-04
    1284       1     1378    5.479452050E-04
    1285       1     1379    5.479452050E-04
    1286       1     1380    5.479452050E-04
    1287       1     1381    5.479452050E-04
    1288       1     1382    5.479452050E-04
    1289       1     1383    5.479452050E-04
    1290       1     1384    5.479452050E-04
    1291       1     1385    5.479452050E-04
    1292       1     1386    5.479452050E-04
    1293       1     1387    5.479452050E-04
    1294       1     1388    5.479452050E-04
    1295       1     1389    5.479452050E-04
    1296       1     1390    5.479452050E-04
    1297       1     1391    5.479452050E-04
    1298       1     1392    5.479452050E-04
    1299       1     1393    5.479452050E-04
    1300       1     1394    5.479452050E-04
    1301       1     1395    5.479452050E-04
    1302       1     1396    5.479452050E-04
    1303       1     1397    5.479452050E-04
    1304       1     1400    5.479452050E-04
    1305       1     1401    5.479452050E-04
    1306       1     1402    5.479452050E-04
    1307       1     1403    5.479452050E-04
    1308       1     1404    5.479452050E-04
    1309       1     1405    5.479452050E-04
    1310       1     1406    5.479452050E-04
    1311       1     1407    5.479452050E-04
    1312       1     1408    5.479452050E-04
    1313       1     1409    5.479452050E-04
    1314       1     1410    5.479452050E-04
    1315       1     1411    5.479452050E-04
    1316       1     1412    5.479452050E-04
    1317       1     1413    5.479452050E-04
    1318       1     1414    5.479452050E-04
    1319       1     1415    5.479452050E-04
    1320       1     1416    5.479452050E-04
    1321       1     1417    5.479452050E-04
    1322       1     1418    5.479452050E-04
    1323       1     1419    5.479452050E-04
    1324       1     1420    5.479452050E-04
    1325       1     1421    5.479452050E-04
    1326       1     1422    5.479452050E-04
    1327       1     1423    5.479452050E-04
    1328       1     1424    5.479452050E-04
    1329       1     1425    5.479452050E-04
    1330       1     1426    5.479452050E-04
    1331       1     1427    5.479452050E-04
    1332       1     1428    5.479452050E-04
    1333       1     1429    5.479452050E-04
    1334       1     1430    5.479452050E-04
    1335       1     1431    5.479452050E-04
    1336       1     1432    5.479452050E-04
    1337       1     1433    5.479452050E-04
    1338       1     1434    5.479452050E-04
    1339       1     1435    5.479452050E-04
    1340       1     1436    5.479452050E-04
    1341       1     1437    5.479452050E-04
    1342       1     1438    5.479452050E-04
    1343       1     1439    5.479452050E-04
    1344       1     1440    5.479452050E-04
    1345       1     1441    5.479452050E-04
    1346       1     1442    5.479452050E-04
    1347       1     1443    5.479452050E-04
    1348       1     1444    5.479452050E-04
    1349       1     1445    5.479452050E-04
    1350       1     1446    5.479452050E-04
    1351       1     1447    5.479452050E-04
    1352       1     1448    5.479452050E-04
    1353       1     1449    5.479452050E-04
    1354       1     1450    5.479452050E-04
    1355       1     1451    5.479452050E-04
    1356       1     1452    5.479452050E-04
    1357       1     1453    5.479452050E-04
    1358       1     1454    5.479452050E-04
    1359       1     1455    5.479452050E-04
    1360       1     1456    5.479452050E-04
    1361       1     1457    5.479452050E-04
    1362       1     1458    5.479452050E-04
    1363       1     1459    5.479452050E-04
    1364       1     1460    5.479452050E-04
    1365       1     1461    5.479452050E-04
    1366       1     1462    5.479452050E-04
    1367       1     1463    5.479452050E-04
    1368       1     1464    5.479452050E-04
    1369       1     1465    5.479452050E-04
    1370       1     1466    5.479452050E-04
    1371       1     1467    5.479452050E-04
    1372       1     1468    5.479452050E-04
    1373       1     1469    5.479452050E-04
    1374       1     1470    5.479452050E-04
    1375       1     1471    5.479452050E-04
    1376       1     1472    5.479452050E-04
    1377       1     1473    5.479452050E-04
    1378       1     1474    5.479452050E-04
    1379       1     1475    5.479452050E-04
    1380       1     1476    5.479452050E-04
    1381       1     1477    5.479452050E-04
    1382       1     1478    5.479452050E-04
    1383       1     1479    5.479452050E-04
    1384       1     1480    5.479452050E-04
    1385       1     1481    5.479452050E-04
    1386       1     1482    5.479452050E-04
    1387       1     1483    5.479452050E-04
    1388       1     1484    5.479452050E-04
    1389       1     1487    5.479452050E-04
    1390       1     1488    5.479452050E-04
    1391       1     1489    5.479452050E-04
    1392       1     1490    5.479452050E-04
    1393       1     1491    5.479452050E-04
    1394       1     1492    5.479452050E-04
    1395       1     1493    5.479452050E-04
    1396       1     1494    5.479452050E-04
    1397       1     1495    5.479452050E-04
    1398       1     1496    5.479452050E-04
    1399       1     1497    5.479452050E-04
    1400       1     1498    5.479452050E-04
    1401       1     1499    5.479452050E-04
    1402       1     1500    5.479452050E-04
    1403       1     1501    5.479452050E-04
    1404       1     1502    5.479452050E-04
    1405       1     1503    5.479452050E-04
    1406       1     1504    5.479452050E-04
    1407       1     1505    5.479452050E-04
    1408       1     1506    5.479452050E-04
    1409       1     1507    5.479452050E-04
    1410       1     1508    5.479452050E-04
    1411       1     1509    5.479452050E-04
    1412       1     1510    5.479452050E-04
    1413       1     1511    5.479452050E-04
    1414       1     1512    5.479452050E-04
    1415       1     1513    5.479452050E-04
    1416       1     1514    5.479452050E-04
    1417       1     1515    5.479452050E-04
    1418       1     1516    5.479452050E-04
    1419       1     1517    5.479452050E-04
    1420       1     1518    5.479452050E-04
    1421       1     1519    5.479452050E-04
    1422       1     1520    5.479452050E-04
    1423       1     1521    5.479452050E-04
    1424       1     1522    5.479452050E-04
    1425       1     1523    5.479452050E-04
    1426       1     1524    5.479452050E-04
    1427       1     1525    5.479452050E-04
    1428       1     1526    5.479452050E-04
    1429       1     1527    5.479452050E-04
    1430       1     1528    5.479452050E-04
    1431       1     1529    5.479452050E-04
    1432       1     1530    5.479452050E-04
    1433       1     1531    5.479452050E-04
    1434       1     1532    5.479452050E-04
    1435       1     1533    5.479452050E-04
    1436       1     1534    5.479452050E-04
    1437       1     1535    5.479452050E-04
    1438       1     1536    5.479452050E-04
    1439       1     1537    5.479452050E-04
    1440       1     1538    5.479452050E-04
    1441       1     1539    5.479452050E-04
    1442       1     1540    5.479452050E-04
    1443       1     1541    5.479452050E-04
    1444       1     1542    5.479452050E-04
    1445       1     1543    5.479452050E-04
    1446       1     1544    5.479452050E-04
    1447       1     1545    5.479452050E-04
    1448       1     1546    5.479452050E-04
    1449       1     1547    5.479452050E-04
    1450       1     1548    5.479452050E-04
    1451       1     1549    5.479452050E-04
    1452       1     1550    5.479452050E-04
    1453       1     1551    5.479452050E-04
    1454       1     1552    5.479452050E-04
    1455       1     1553    5.479452050E-04
    1456       1     1554    5.479452050E-04
    1457       1     1555    5.479452050E-04
    1458       1     1556    5.479452050E-04
    1459       1     1557    5.479452050E-04
    1460       1     1558    5.479452050E-04
    1461       1     1559    5.479452050E-04
    1462       1     1560    5.479452050E-04
    1463       1     1561    5.479452050E-04
    1464       1     1562    5.479452050E-04
    1465       1     1563    5.479452050E-04
    1466       1     1564    5.479452050E-04
    1467       1     1565    5.479452050E-04
    1468       1     1566    5.479452050E-04
    1469       1     1567    5.479452050E-04
    1470       1     1568    5.479452050E-04
    1471       1     1569    5.479452050E-04
    1472       1     1570    5.479452050E-04
    1473       1     1571    5.479452050E-04
    1474       1     1572    5.479452050E-04
    1475       1     1573    5.479452050E-04
    1476       1     1574    5.479452050E-04
    1477       1     1575    5.479452050E-04
    1478       1     1576    5.479452050E-04
    1479       1     1577    5.479452050E-04
    1480       1     1578    5.479452050E-04
    1481       1     1579    5.479452050E-04
    1482       1     1582    5.479452050E-04
    1483       1     1583    5.479452050E-04
    1484       1     1584    5.479452050E-04
    1485       1     1585    5.479452050E-04
    1486       1     1586    5.479452050E-04
    1487       1     1587    5.479452050E-04
    1488       1     1588    5.479452050E-04
    1489       1     1589    5.479452050E-04
    1490       1     1590    5.479452050E-04
    1491       1     1591    5.479452050E-04
    1492       1     1592    5.479452050E-04
    1493       1     1593    5.479452050E-04
    1494       1     1594    5.479452050E-04
    1495       1     1595    5.479452050E-04
    1496       1     1596    5.479452050E-04
    1497       1     1597    5.479452050E-04
    1498       1     1598    5.479452050E-04
    1499       1     1599    5.479452050E-04
    1500       1     1600    5.479452050E-04
    1501       1     1601    5.479452050E-04
    1502       1     1602    5.479452050E-04
    1503       1     1603    5.479452050E-04
    1504       1     1604    5.479452050E-04
    1505       1     1605    5.479452050E-04
    1506       1     1606    5.479452050E-04
    1507       1     1607    5.479452050E-04
    1508       1     1608    5.479452050E-04
    1509       1     1609    5.479452050E-04
    1510       1     1610    5.479452050E-04
    1511       1     1611    5.479452050E-04
    1512       1     1612    5.479452050E-04
    1513       1     1613    5.479452050E-04
    1514       1     1614    5.479452050E-04
    1515       1     1615    5.479452050E-04
    1516       1     1616    5.479452050E-04
    1517       1     1617    5.479452050E-04
    1518       1     1618    5.479452050E-04
    1519       1     1619    5.479452050E-04
    1520       1     1620    5.479452050E-04
    1521       1     1621    5.479452050E-04
    1522       1     1622    5.479452050E-04
    1523       1     1623    5.479452050E-04
    1524       1     1624    5.479452050E-04
    1525       1     1625    5.479452050E-04
    1526       1     1626    5.479452050E-04
    1527       1     1627    5.479452050E-04
    1528       1     1628    5.479452050E-04
    1529       1     1629    5.479452050E-04
    1530       1     1630    5.479452050E-04
    1531       1     1631    5.479452050E-04
    1532       1     1632    5.479452050E-04
    1533       1     1633    5.479452050E-04
    1534       1     1634    5.479452050E-04
    1535       1     1635    5.479452050E-04
    1536       1     1636    5.479452050E-04
    1537       1     1637    5.479452050E-04
    1538       1     1638    5.479452050E-04
    1539       1     1639    5.479452050E-04
    1540       1     1640    5.479452050E-04
    1541       1     1641    5.479452050E-04
    1542       1     1642    5.479452050E-04
    1543       1     1643    5.479452050E-04
    1544       1     1644    5.479452050E-04
    1545       1     1645    5.479452050E-04
    1546       1     1646    5.479452050E-04
    1547       1     1647    5.479452050E-04
    1548       1     1648    5.479452050E-04
    1549       1     1649    5.479452050E-04
    1550       1     1650    5.479452050E-04
    1551       1     1651    5.479452050E-04
    1552       1     1652    5.479452050E-04
    1553       1     1653    5.479452050E-04
    1554       1     1654    5.479452050E-04
    1555       1     1655    5.479452050E-04
    1556       1     1656    5.479452050E-04
    1557       1     1657    5.479452050E-04
    1558       1     1658    5.479452050E-04
    1559       1     1659    5.479452050E-04
    1560       1     1660    5.479452050E-04
    1561       1     1661    5.479452050E-04
    1562       1     1662    5.479452050E-04
    1563       1     1663    5.479452050E-04
    1564       1     1664    5.479452050E-04
    1565       1     1665    5.479452050E-04
    1566       1     1666    5.479452050E-04
    1567       1     1667    5.479452050E-04
    1568       1     1668    5.479452050E-04
    1569       1     1669    5.479452050E-04
    1570       1     1670    5.479452050E-04
    1571       1     1671    5.479452050E-04
    1572       1     1672    5.479452050E-04
    1573       1     1673    5.479452050E-04
    1574       1     1674    5.479452050E-04
    1575       1     1675    5.479452050E-04
    1576       1     1676    5.479452050E-04
    1577       1     1677    5.479452050E-04
    1578       1     1678    5.479452050E-04
    1579       1     1679    5.479452050E-04
    1580       1     1680    5.479452050E-04
    1581       1     1681    5.479452050E-04
    1582       1     1682    5.479452050E-04
    1583       1     1683    5.479452050E-04
    1584       1     1684    5.479452050E-04
    1585       1     1685    5.479452050E-04
    1586       1     1686    5.479452050E-04
    1587       1     1687    5.479452050E-04
    1588       1     1688    5.479452050E-04
    1589       1     1689    5.479452050E-04
    1590       1     1690    5.479452050E-04
    1591       1     1691    5.479452050E-04
    1592       1     1694    5.479452050E-04
    1593       1     1695    5.479452050E-04
    1594       1     1696    5.479452050E-04
    1595       1     1697    5.479452050E-04
    1596       1     1698    5.479452050E-04
    1597       1     1699    5.479452050E-04
    1598       1     1700    5.479452050E-04
    1599       1     1701    5.479452050E-04
    1600       1     1702    5.479452050E-04
    1601       1     1703    5.479452050E-04
    1602       1     1704    5.479452050E-04
    1603       1     1705    5.479452050E-04
    1604       1     1706    5.479452050E-04
    1605       1     1707    5.479452050E-04
    1606       1     1708    5.479452050E-04
    1607       1     1709    5.479452050E-04
    1608       1     1710    5.479452050E-04
    1609       1     1711    5.479452050E-04
    1610       1     1712    5.479452050E-04
    1611       1     1713    5.479452050E-04
    1612       1     1714    5.479452050E-04
    1613       1     1715    5.479452050E-04
    1614       1     1716    5.479452050E-04
    1615       1     1717    5.479452050E-04
    1616       1     1718    5.479452050E-04
    1617       1     1719    5.479452050E-04
    1618       1     1720    5.479452050E-04
    1619       1     1721    5.479452050E-04
    1620       1     1722    5.479452050E-04
    1621       1     1723    5.479452050E-04
    1622       1     1724    5.479452050E-04
    1623       1     1725    5.479452050E-04
    1624       1     1726    5.479452050E-04
    1625       1     1727    5.479452050E-04
    1626       1     1728    5.479452050E-04
    1627       1     1729    5.479452050E-04
    1628       1     1730    5.479452050E-04
    1629       1     1731    5.479452050E-04
    1630       1     1732    5.479452050E-04
    1631       1     1733    5.479452050E-04
    1632       1     1734    5.479452050E-04
    1633       1     1735    5.479452050E-04
    1634       1     1736    5.479452050E-04
    1635       1     1737    5.479452050E-04
    1636       1     1738    5.479452050E-04
    1637       1     1739    5.479452050E-04
    1638       1     1740    5.479452050E-04
    1639       1     1741    5.479452050E-04
    1640       1     1742    5.479452050E-04
    1641       1     1743    5.479452050E-04
    1642       1     1744    5.479452050E-04
    1643       1     1745    5.479452050E-04
    1644       1     1746    5.479452050E-04
    1645       1     1747    5.479452050E-04
    1646       1     1748    5.479452050E-04
    1647       1     1749    5.479452050E-04
    1648       1     1750    5.479452050E-04
    1649       1     1751    5.479452050E-04
    1650       1     1752    5.479452050E-04
    1651       1     1753    5.479452050E-04
    1652       1     1754    5.479452050E-04
    1653       1     1755    5.479452050E-04
    1654       1     1756    5.479452050E-04
    1655       1     1757    5.479452050E-04
    1656       1     1758    5.479452050E-04
    1657       1     1759    5.479452050E-04
    1658       1     1760    5.479452050E-04
    1659       1     1761    5.479452050E-04
    1660       1     1762    5.479452050E-04
    1661       1     1763    5.479452050E-04
    1662       1     1764    5.479452050E-04
    1663       1     1765    5.479452050E-04
    1664       1     1766    5.479452050E-04
    1665       1     1767    5.479452050E-04
    1666       1     1768    5.479452050E-04
    1667       1     1769    5.479452050E-04
    1668       1     1770    5.479452050E-04
    1669       1     1771    5.479452050E-04
    1670       1     1772    5.479452050E-04
    1671       1     1773    5.479452050E-04
    1672       1     1774    5.479452050E-04
    1673       1     1775    5.479452050E-04
    1674       1     1778    5.479452050E-04
    1675       1     1779    5.479452050E-04
    1676       1     1780    5.479452050E-04
    1677       1     1781    5.479452050E-04
    1678       1     1782    5.479452050E-04
    1679       1     1783    5.479452050E-04
    1680       1     1784    5.479452050E-04
    1681       1     1785    5.479452050E-04
    1682       1     1786    5.479452050E-04
    1683       1     1787    5.479452050E-04
    1684       1     1788    5.479452050E-04
    1685       1     1789    5.479452050E-04
    1686       1     1790    5.479452050E-04
    1687       1     1791    5.479452050E-04
    1688       1     1792    5.479452050E-04
    1689       1     1793    5.479452050E-04
    1690       1     1794    5.479452050E-04
    1691       1     1795    5.479452050E-04
    1692       1     1796    5.479452050E-04
    1693       1     1797    5.479452050E-04
    1694       1     1798    5.479452050E-04
    1695       1     1799    5.479452050E-04
    1696       1     1800    5.479452050E-04
    1697       1     1801    5.479452050E-04
    1698       1     1802    5.479452050E-04
    1699       1     1803    5.479452050E-04
    1700       1     1804    5.479452050E-04
    1701       1     1805    5.479452050E-04
    1702       1     1806    5.479452050E-04
    1703       1     1807    5.479452050E-04
    1704       1     1808    5.479452050E-04
    1705       1     1809    5.479452050E-04
    1706       1     1810    5.479452050E-04
    1707       1     1811    5.479452050E-04
    1708       1     1812    5.479452050E-04
    1709       1     1813    5.479452050E-04
    1710       1     1814    5.479452050E-04
    1711       1     1815    5.479452050E-04
    1712       1     1816    5.479452050E-04
    1713       1     1817    5.479452050E-04
    1714       1     1818    5.479452050E-04
    1715       1     1819    5.479452050E-04
    1716       1     1820    5.479452050E-04
    1717       1     1821    5.479452050E-04
    1718       1     1822    5.479452050E-04
    1719       1     1823    5.479452050E-04
    1720       1     1824    5.479452050E-04
    1721       1     1825    5.479452050E-04
    1722       1     1826    5.479452050E-04
    1723       1     1827    5.479452050E-04
    1724       1     1828    5.479452050E-04
    1725       1     1829    5.479452050E-04
    1726       1     1830    5.479452050E-04
    1727       1     1831    5.479452050E-04
    1728       1     1832    5.479452050E-04
    1729       1     1833    5.479452050E-04
    1730       1     1834    5.479452050E-04
    1731       1     1835    5.479452050E-04
    1732       1     1836    5.479452050E-04
    1733       1     1837    5.479452050E-04
    1734       1     1838    5.479452050E-04
    1735       1     1839    5.479452050E-04
    1736       1     1840    5.479452050E-04
    1737       1     1841    5.479452050E-04
    1738       1     1842    5.479452050E-04
    1739       1     1843    5.479452050E-04
    1740       1     1844    5.479452050E-04
    1741       1     1845    5.479452050E-04
    1742       1     1846    5.479452050E-04
    1743       1     1847    5.479452050E-04
    1744       1     1848    5.479452050E-04
    1745       1     1849    5.479452050E-04
    1746       1     1850    5.479452050E-04
    1747       1     1851    5.479452050E-04
    1748       1     1852    5.479452050E-04
    1749       1     1855    5.479452050E-04
    1750       1     1856    5.479452050E-04
    1751       1     1857    5.479452050E-04
    1752       1     1858    5.479452050E-04
    1753       1     1859    5.479452050E-04
    1754       1     1860    5.479452050E-04
    1755       1     1861    5.479452050E-04
    1756       1     1862    5.479452050E-04
    1757       1     1863    5.479452050E-04
    1758       1     1864    5.479452050E-04
    1759       1     1865    5.479452050E-04
    1760       1     1866    5.479452050E-04
    1761       1     1867    5.479452050E-04
    1762       1     1868    5.479452050E-04
    1763       1     1869    5.479452050E-04
    1764       1     1870    5.479452050E-04
    1765       1     1871    5.479452050E-04
    1766       1     1872    5.479452050E-04
    1767       1     1873    5.479452050E-04
    1768       1     1874    5.479452050E-04
    1769       1     1875    5.479452050E-04
    1770       1     1876    5.479452050E-04
    1771       1     1877    5.479452050E-04
    1772       1     1878    5.479452050E-04
    1773       1     1879    5.479452050E-04
    1774       1     1880    5.479452050E-04
    1775       1     1881    5.479452050E-04
    1776       1     1882    5.479452050E-04
    1777       1     1883    5.479452050E-04
    1778       1     1884    5.479452050E-04
    1779       1     1885    5.479452050E-04
    1780       1     1886    5.479452050E-04
    1781       1     1887    5.479452050E-04
    1782       1     1888    5.479452050E-04
    1783       1     1889    5.479452050E-04
    1784       1     1890    5.479452050E-04
    1785       1     1891    5.479452050E-04
    1786       1     1892    5.479452050E-04
    1787       1     1893    5.479452050E-04
    1788       1     1894    5.479452050E-04
    1789       1     1895    5.479452050E-04
    1790       1     1896    5.479452050E-04
    1791       1     1897    5.479452050E-04
    1792       1     1898    5.479452050E-04
    1793       1     1899    5.479452050E-04
    1794       1     1900    5.479452050E-04
    1795       1     1901    5.479452050E-04
    1796       1     1902    5.479452050E-04
    1797       1     1903    5.479452050E-04
    1798       1     1904    5.479452050E-04
    1799       1     1905    5.479452050E-04
    1800       1     1906    5.479452050E-04
    1801       1     1907    5.479452050E-04
    1802       1     1908    5.479452050E-04
    1803       1     1909    5.479452050E-04
    1804       1     1910    5.479452050E-04
    1805       1     1911    5.479452050E-04
    1806       1     1912    5.479452050E-04
    1807       1     1913    5.479452050E-04
    1808       1     1914    5.479452050E-04
    1809       1     1915    5.479452050E-04
    1810       1     1916    5.479452050E-04
    1811       1     1917    5.479452050E-04
    1812       1     1918    5.479452050E-04
    1813       1     1919    5.479452050E-04
    1814       1     1920    5.479452050E-04
    1815       1     1921    5.479452050E-04
    1816       1     1922    5.479452050E-04
    1817       1     1923    5.479452050E-04
    1818       1     1924    5.479452050E-04
    1819       1     1925    5.479452050E-04
    1820       1     1926    5.479452050E-04
    1821       1     1927    5.479452050E-04
    1822       1     1928    5.479452050E-04
    1823       1     1931    5.479452050E-04
    1824       1     1932    5.479452050E-04
    1825       1     1933    5.479452050E-04
    1826       1     1934    5.479452050E-04
    1827       1     1935    5.479452050E-04
    1828       1     1936    5.479452050E-04
    1829       1     1937    5.479452050E-04
    1830       1     1938    5.479452050E-04
    1831       1     1939    5.479452050E-04
    1832       1     1940    5.479452050E-04
    1833       1     1941    5.479452050E-04
    1834       1     1942    5.479452050E-04
    1835       1     1943    5.479452050E-04
    1836       1     1944    5.479452050E-04
    1837       1     1945    5.479452050E-04
    1838       1     1946    5.479452050E-04
    1839       1     1947    5.479452050E-04
    1840       1     1948    5.479452050E-04
    1841       1     1949    5.479452050E-04
    1842       1     1950    5.479452050E-04
    1843       1     1951    5.479452050E-04
    1844       1     1952    5.479452050E-04
    1845       1     1953    5.479452050E-04
    1846       1     1954    5.479452050E-04
    1847       1     1955    5.479452050E-04
    1848       1     1956    5.479452050E-04
    1849       1     1957    5.479452050E-04
    1850       1     1958    5.479452050E-04
    1851       1     1959    5.479452050E-04
    1852       1     1960    5.479452050E-04
    1853       1     1961    5.479452050E-04
    1854       1     1962    5.479452050E-04
    1855       1     1963    5.479452050E-04
    1856       1     1964    5.479452050E-04
    1857       1     1965    5.479452050E-04
    1858       1     1966    5.479452050E-04
    1859       1     1967    5.479452050E-04
    1860       1     1968    5.479452050E-04
    1861       1     1969    5.479452050E-04
    1862       1     1970    5.479452050E-04
    1863       1     1971    5.479452050E-04
    1864       1     1972    5.479452050E-04
    1865       1     1973    5.479452050E-04
    1866       1     1974    5.479452050E-04
    1867       1     1975    5.479452050E-04
    1868       1     1976    5.479452050E-04
    1869       1     1977    5.479452050E-04
    1870       1     1978    5.479452050E-04
    1871       1     1979    5.479452050E-04
    1872       1     1980    5.479452050E-04
    1873       1     1981    5.479452050E-04
    1874       1     1982    5.479452050E-04
    1875       1     1983    5.479452050E-04
    1876       1     1984    5.479452050E-04
    1877       1     1985    5.479452050E-04
    1878       1     1986    5.479452050E-04
    1879       1     1987    5.479452050E-04
    1880       1     1988    5.479452050E-04
    1881       1     1989    5.479452050E-04
    1882       1     1990    5.479452050E-04
    1883       1     1991    5.479452050E-04
    1884       1     1992    5.479452050E-04
    1885       1     1993    5.479452050E-04
    1886       1     1994    5.479452050E-04
    1887       1     1995    5.479452050E-04
    1888       1     1996    5.479452050E-04
    1889       1     1997    5.479452050E-04
    1890       1     1998    5.479452050E-04
    1891       1     1999    5.479452050E-04
    1892       1     2000    5.479452050E-04
    1893       1     2001    5.479452050E-04
    1894       1     2002    5.479452050E-04
    1895       1     2003    5.479452050E-04
    1896       1     2006    5.479452050E-04
    1897       1     2007    5.479452050E-04
    1898       1     2008    5.479452050E-04
    1899       1     2009    5.479452050E-04
    1900       1     2010    5.479452050E-04
    1901       1     2011    5.479452050E-04
    1902       1     2012    5.479452050E-04
    1903       1     2013    5.479452050E-04
    1904       1     2014    5.479452050E-04
    1905       1     2015    5.479452050E-04
    1906       1     2016    5.479452050E-04
    1907       1     2017    5.479452050E-04
    1908       1     2018    5.479452050E-04
    1909       1     2019    5.479452050E-04
    1910       1     2020    5.479452050E-04
    1911       1     2021    5.479452050E-04
    1912       1     2022    5.479452050E-04
    1913       1     2023    5.479452050E-04
    1914       1     2024    5.479452050E-04
    1915       1     2025    5.479452050E-04
    1916       1     2026    5.479452050E-04
    1917       1     2027    5.479452050E-04
    1918       1     2028    5.479452050E-04
    1919       1     2029    5.479452050E-04
    1920       1     2030    5.479452050E-04
    1921       1     2031    5.479452050E-04
    1922       1     2032    5.479452050E-04
    1923       1     2033    5.479452050E-04
    1924       1     2034    5.479452050E-04
    1925       1     2035    5.479452050E-04
    1926       1     2036    5.479452050E-04
    1927       1     2037    5.479452050E-04
    1928       1     2038    5.479452050E-04
    1929       1     2039    5.479452050E-04
    1930       1     2040    5.479452050E-04
    1931       1     2041    5.479452050E-04
    1932       1     2042    5.479452050E-04
    1933       1     2043    5.479452050E-04
    1934       1     2044    5.479452050E-04
    1935       1     2045    5.479452050E-04
    1936       1     2046    5.479452050E-04
    1937       1     2047    5.479452050E-04
    1938       1     2048    5.479452050E-04
    1939       1     2049    5.479452050E-04
    1940       1     2050    5.479452050E-04
    1941       1     2051    5.479452050E-04
    1942       1     2052    5.479452050E-04
    1943       1     2053    5.479452050E-04
    1944       1     2054    5.479452050E-04
    1945       1     2055    5.479452050E-04
    1946       1     2056    5.479452050E-04
    1947       1     2057    5.479452050E-04
    1948       1     2058    5.479452050E-04
    1949       1     2059    5.479452050E-04
    1950       1     2060    5.479452050E-04
    1951       1     2061    5.479452050E-04
    1952       1     2062    5.479452050E-04
    1953       1     2063    5.479452050E-04
    1954       1     2064    5.479452050E-04
    1955       1     2065    5.479452050E-04
    1956       1     2066    5.479452050E-04
    1957       1     2067    5.479452050E-04
    1958       1     2068    5.479452050E-04
    1959       1     2069    5.479452050E-04
    1960       1     2070    5.479452050E-04
    1961       1     2071    5.479452050E-04
    1962       1     2072    5.479452050E-04
    1963       1     2073    5.479452050E-04
    1964       1     2074    5.479452050E-04
    1965       1     2077    5.479452050E-04
    1966       1     2078    5.479452050E-04
    1967       1     2079    5.479452050E-04
    1968       1     2080    5.479452050E-04
    1969       1     2081    5.479452050E-04
    1970       1     2082    5.479452050E-04
    1971       1     2083    5.479452050E-04
    1972       1     2084    5.479452050E-04
    1973       1     2085    5.479452050E-04
    1974       1     2086    5.479452050E-04
    1975       1     2087    5.479452050E-04
    1976       1     2088    5.479452050E-04
    1977       1     2089    5.479452050E-04
    1978       1     2090    5.479452050E-04
    1979       1     2091    5.479452050E-04
    1980       1     2092    5.479452050E-04
    1981       1     2093    5.479452050E-04
    1982       1     2094    5.479452050E-04
    1983       1     2095    5.479452050E-04
    1984       1     2096    5.479452050E-04
    1985       1     2097    5.479452050E-04
    1986       1     2098    5.479452050E-04
    1987       1     2099    5.479452050E-04
    1988       1     2100    5.479452050E-04
    1989       1     2101    5.479452050E-04
    1990       1     2102    5.479452050E-04
    1991       1     2103    5.479452050E-04
    1992       1     2104    5.479452050E-04
    1993       1     2105    5.479452050E-04
    1994       1     2106    5.479452050E-04
    1995       1     2107    5.479452050E-04
    1996       1     2108    5.479452050E-04
    1997       1     2109    5.479452050E-04
    1998       1     2110    5.479452050E-04
    1999       1     2111    5.479452050E-04
    2000       1     2112    5.479452050E-04
    2001       1     2113    5.479452050E-04
    2002       1     2114    5.479452050E-04
    2003       1     2115    5.479452050E-04
    2004       1     2116    5.479452050E-04
    2005       1     2117    5.479452050E-04
    2006       1     2118    5.479452050E-04
    2007       1     2119    5.479452050E-04
    2008       1     2120    5.479452050E-04
    2009       1     2121    5.479452050E-04
    2010       1     2122    5.479452050E-04
    2011       1     2123    5.479452050E-04
    2012       1     2124    5.479452050E-04
    2013       1     2125    5.479452050E-04
    2014       1     2126    5.479452050E-04
    2015       1     2127    5.479452050E-04
    2016       1     2128    5.479452050E-04
    2017       1     2129    5.479452050E-04
    2018       1     2130    5.479452050E-04
    2019       1     2131    5.479452050E-04
    2020       1     2132    5.479452050E-04
    2021       1     2133    5.479452050E-04
    2022       1     2134    5.479452050E-04
    2023       1     2135    5.479452050E-04
    2024       1     2136    5.479452050E-04
    2025       1     2137    5.479452050E-04
    2026       1     2138    5.479452050E-04
    2027       1     2139    5.479452050E-04
    2028       1     2140    5.479452050E-04
    2029       1     2141    5.479452050E-04
    2030       1     2142    5.479452050E-04
    2031       1     2143    5.479452050E-04
    2032       1     2144    5.479452050E-04
    2033       1     2147    5.479452050E-04
    2034       1     2148    5.479452050E-04
    2035       1     2149    5.479452050E-04
    2036       1     2150    5.479452050E-04
    2037       1     2151    5.479452050E-04
    2038       1     2152    5.479452050E-04
    2039       1     2153    5.479452050E-04
    2040       1     2154    5.479452050E-04
    2041       1     2155    5.479452050E-04
    2042       1     2156    5.479452050E-04
    2043       1     2157    5.479452050E-04
    2044       1     2158    5.479452050E-04
    2045       1     2159    5.479452050E-04
    2046       1     2160    5.479452050E-04
    2047       1     2161    5.479452050E-04
    2048       1     2162    5.479452050E-04
    2049       1     2163    5.479452050E-04
    2050       1     2164    5.479452050E-04
    2051       1     2165    5.479452050E-04
    2052       1     2166    5.479452050E-04
    2053       1     2167    5.479452050E-04
    2054       1     2168    5.479452050E-04
    2055       1     2169    5.479452050E-04
    2056       1     2170    5.479452050E-04
    2057       1     2171    5.479452050E-04
    2058       1     2172    5.479452050E-04
    2059       1     2173    5.479452050E-04
    2060       1     2174    5.479452050E-04
    2061       1     2175    5.479452050E-04
    2062       1     2176    5.479452050E-04
    2063       1     2177    5.479452050E-04
    2064       1     2178    5.479452050E-04
    2065       1     2179    5.479452050E-04
    2066       1     2180    5.479452050E-04
    2067       1     2181    5.479452050E-04
    2068       1     2182    5.479452050E-04
    2069       1     2183    5.479452050E-04
    2070       1     2184    5.479452050E-04
    2071       1     2185    5.479452050E-04
    2072       1     2186    5.479452050E-04
    2073       1     2187    5.479452050E-04
    2074       1     2188    5.479452050E-04
    2075       1     2189    5.479452050E-04
    2076       1     2190    5.479452050E-04
    2077       1     2191    5.479452050E-04
    2078       1     2192    5.479452050E-04
    2079       1     2193    5.479452050E-04
    2080       1     2194    5.479452050E-04
    2081       1     2195    5.479452050E-04
    2082       1     2196    5.479452050E-04
    2083       1     2197    5.479452050E-04
    2084       1     2198    5.479452050E-04
    2085       1     2199    5.479452050E-04
    2086       1     2200    5.479452050E-04
    2087       1     2201    5.479452050E-04
    2088       1     2202    5.479452050E-04
    2089       1     2203    5.479452050E-04
    2090       1     2204    5.479452050E-04
    2091       1     2205    5.479452050E-04
    2092       1     2206    5.479452050E-04
    2093       1     2207    5.479452050E-04
    2094       1     2208    5.479452050E-04
    2095       1     2209    5.479452050E-04
    2096       1     2210    5.479452050E-04
    2097       1     2211    5.479452050E-04
    2098       1     2212    5.479452050E-04
    2099       1     2213    5.479452050E-04
    2100       1     2216    5.479452050E-04
    2101       1     2217    5.479452050E-04
    2102       1     2218    5.479452050E-04
    2103       1     2219    5.479452050E-04
    2104       1     2220    5.479452050E-04
    2105       1     2221    5.479452050E-04
    2106       1     2222    5.479452050E-04
    2107       1     2223    5.479452050E-04
    2108       1     2224    5.479452050E-04
    2109       1     2225    5.479452050E-04
    2110       1     2226    5.479452050E-04
    2111       1     2227    5.479452050E-04
    2112       1     2228    5.479452050E-04
    2113       1     2229    5.479452050E-04
    2114       1     2230    5.479452050E-04
    2115       1     2231    5.479452050E-04
    2116       1     2232    5.479452050E-04
    2117       1     2233    5.479452050E-04
    2118       1     2234    5.479452050E-04
    2119       1     2235    5.479452050E-04
    2120       1     2236    5.479452050E-04
    2121       1     2237    5.479452050E-04
    2122       1     2238    5.479452050E-04
    2123       1     2239    5.479452050E-04
    2124       1     2240    5.479452050E-04
    2125       1     2241    5.479452050E-04
    2126       1     2242    5.479452050E-04
    2127       1     2243    5.479452050E-04
    2128       1     2244    5.479452050E-04
    2129       1     2245    5.479452050E-04
    2130       1     2246    5.479452050E-04
    2131       1     2247    5.479452050E-04
    2132       1     2248    5.479452050E-04
    2133       1     2249    5.479452050E-04
    2134       1     2250    5.479452050E-04
    2135       1     2251    5.479452050E-04
    2136       1     2252    5.479452050E-04
    2137       1     2253    5.479452050E-04
    2138       1     2254    5.479452050E-04
    2139       1     2255    5.479452050E-04
    2140       1     2256    5.479452050E-04
    2141       1     2257    5.479452050E-04
    2142       1     2258    5.479452050E-04
    2143       1     2259    5.479452050E-04
    2144       1     2260    5.479452050E-04
    2145       1     2261    5.479452050E-04
    2146       1     2262    5.479452050E-04
    2147       1     2263    5.479452050E-04
    2148       1     2264    5.479452050E-04
    2149       1     2265    5.479452050E-04
    2150       1     2266    5.479452050E-04
    2151       1     2267    5.479452050E-04
    2152       1     2268    5.479452050E-04
    2153       1     2269    5.479452050E-04
    2154       1     2270    5.479452050E-04
    2155       1     2271    5.479452050E-04
    2156       1     2272    5.479452050E-04
    2157       1     2273    5.479452050E-04
    2158       1     2274    5.479452050E-04
    2159       1     2275    5.479452050E-04
    2160       1     2276    5.479452050E-04
    2161       1     2277    5.479452050E-04
    2162       1     2278    5.479452050E-04
    2163       1     2279    5.479452050E-04
    2164       1     2280    5.479452050E-04
    2165       1     2281    5.479452050E-04
    2166       1     2282    5.479452050E-04
    2167       1     2283    5.479452050E-04
    2168       1     2284    5.479452050E-04
    2169       1     2285    5.479452050E-04
    2170       1     2286    5.479452050E-04
    2171       1     2287    5.479452050E-04
    2172       1     2288    5.479452050E-04
    2173       1     2289    5.479452050E-04
    2174       1     2290    5.479452050E-04
    2175       1     2291    5.479452050E-04
    2176       1     2292    5.479452050E-04
    2177       1     2293    5.479452050E-04
    2178       1     2294    5.479452050E-04
    2179       1     2295    5.479452050E-04
    2180       1     2296    5.479452050E-04
    2181       1     2297    5.479452050E-04
    2182       1     2298    5.479452050E-04
    2183       1     2299    5.479452050E-04
    2184       1     2300    5.479452050E-04
    2185       1     2301    5.479452050E-04
    2186       1     2302    5.479452050E-04
    2187       1     2303    5.479452050E-04
    2188       1     2304    5.479452050E-04
    2189       1     2305    5.479452050E-04
    2190       1     2306    5.479452050E-04
    2191       1     2307    5.479452050E-04
    2192       1     2308    5.479452050E-04
    2193       1     2311    5.479452050E-04
    2194       1     2312    5.479452050E-04
    2195       1     2313    5.479452050E-04
    2196       1     2314    5.479452050E-04
    2197       1     2315    5.479452050E-04
    2198       1     2316    5.479452050E-04
    2199       1     2317    5.479452050E-04
    2200       1     2318    5.479452050E-04
    2201       1     2319    5.479452050E-04
    2202       1     2320    5.479452050E-04
    2203       1     2321    5.479452050E-04
    2204       1     2322    5.479452050E-04
    2205       1     2323    5.479452050E-04
    2206       1     2324    5.479452050E-04
    2207       1     2325    5.479452050E-04
    2208       1     2326    5.479452050E-04
    2209       1     2327    5.479452050E-04
    2210       1     2328    5.479452050E-04
    2211       1     2329    5.479452050E-04
    2212       1     2330    5.479452050E-04
    2213       1     2331    5.479452050E-04
    2214       1     2332    5.479452050E-04
    2215       1     2333    5.479452050E-04
    2216       1     2334    5.479452050E-04
    2217       1     2335    5.479452050E-04
    2218       1     2336    5.479452050E-04
    2219       1     2337    5.479452050E-04
    2220       1     2338    5.479452050E-04
    2221       1     2339    5.479452050E-04
    2222       1     2340    5.479452050E-04
    2223       1     2341    5.479452050E-04
    2224       1     2342    5.479452050E-04
    2225       1     2343    5.479452050E-04
    2226       1     2344    5.479452050E-04
    2227       1     2345    5.479452050E-04
    2228       1     2346    5.479452050E-04
    2229       1     2347    5.479452050E-04
    2230       1     2348    5.479452050E-04
    2231       1     2349    5.479452050E-04
    2232       1     2350    5.479452050E-04
    2233       1     2351    5.479452050E-04
    2234       1     2352    5.479452050E-04
    2235       1     2353    5.479452050E-04
    2236       1     2354    5.479452050E-04
    2237       1     2355    5.479452050E-04
    2238       1     2356    5.479452050E-04
    2239       1     2357    5.479452050E-04
    2240       1     2358    5.479452050E-04
    2241       1     2359    5.479452050E-04
    2242       1     2360    5.479452050E-04
    2243       1     2361    5.479452050E-04
    2244       1     2362    5.479452050E-04
    2245       1     2363    5.479452050E-04
    2246       1     2364    5.479452050E-04
    2247       1     2365    5.479452050E-04
    2248       1     2366    5.479452050E-04
    2249       1     2367    5.479452050E-04
    2250       1     2368    5.479452050E-04
    2251       1     2369    5.479452050E-04
    2252       1     2370    5.479452050E-04
    2253       1     2371    5.479452050E-04
    2254       1     2372    5.479452050E-04
    2255       1     2373    5.479452050E-04
    2256       1     2374    5.479452050E-04
    2257       1     2375    5.479452050E-04
    2258       1     2376    5.479452050E-04
    2259       1     2377    5.479452050E-04
    2260       1     2378    5.479452050E-04
    2261       1     2379    5.479452050E-04
    2262       1     2380    5.479452050E-04
    2263       1     2381    5.479452050E-04
    2264       1     2382    5.479452050E-04
    2265       1     2383    5.479452050E-04
    2266       1     2384    5.479452050E-04
    2267       1     2385    5.479452050E-04
    2268       1     2386    5.479452050E-04
    2269       1     2387    5.479452050E-04
    2270       1     2388    5.479452050E-04
    2271       1     2389    5.479452050E-04
    2272       1     2390    5.479452050E-04
    2273       1     2391    5.479452050E-04
    2274       1     2392    5.479452050E-04
    2275       1     2393    5.479452050E-04
    2276       1     2394    5.479452050E-04
    2277       1     2395    5.479452050E-04
    2278       1     2396    5.479452050E-04
    2279       1     2397    5.479452050E-04
    2280       1     2398    5.479452050E-04
    2281       1     2399    5.479452050E-04
    2282       1     2400    5.479452050E-04
    2283       1     2401    5.479452050E-04
    2284       1     2402    5.479452050E-04
    2285       1     2405    5.479452050E-04
    2286       1     2406    5.479452050E-04
    2287       1     2407    5.479452050E-04
    2288       1     2408    5.479452050E-04
    2289       1     2409    5.479452050E-04
    2290       1     2410    5.479452050E-04
    2291       1     2411    5.479452050E-04
    2292       1     2412    5.479452050E-04
    2293       1     2413    5.479452050E-04
    2294       1     2414    5.479452050E-04
    2295       1     2415    5.479452050E-04
    2296       1     2416    5.479452050E-04
    2297       1     2417    5.479452050E-04
    2298       1     2418    5.479452050E-04
    2299       1     2419    5.479452050E-04
    2300       1     2420    5.479452050E-04
    2301       1     2421    5.479452050E-04
    2302       1     2422    5.479452050E-04
    2303       1     2423    5.479452050E-04
    2304       1     2424    5.479452050E-04
    2305       1     2425    5.479452050E-04
    2306       1     2426    5.479452050E-04
    2307       1     2427    5.479452050E-04
    2308       1     2428    5.479452050E-04
    2309       1     2429    5.479452050E-04
    2310       1     2430    5.479452050E-04
    2311       1     2431    5.479452050E-04
    2312       1     2432    5.479452050E-04
    2313       1     2433    5.479452050E-04
    2314       1     2434    5.479452050E-04
    2315       1     2435    5.479452050E-04
    2316       1     2436    5.479452050E-04
    2317       1     2437    5.479452050E-04
    2318       1     2438    5.479452050E-04
    2319       1     2439    5.479452050E-04
    2320       1     2440    5.479452050E-04
    2321       1     2441    5.479452050E-04
    2322       1     2442    5.479452050E-04
    2323       1     2443    5.479452050E-04
    2324       1     2444    5.479452050E-04
    2325       1     2445    5.479452050E-04
    2326       1     2446    5.479452050E-04
    2327       1     2447    5.479452050E-04
    2328       1     2448    5.479452050E-04
    2329       1     2449    5.479452050E-04
    2330       1     2450    5.479452050E-04
    2331       1     2451    5.479452050E-04
    2332       1     2452    5.479452050E-04
    2333       1     2453    5.479452050E-04
    2334       1     2454    5.479452050E-04
    2335       1     2455    5.479452050E-04
    2336       1     2456    5.479452050E-04
    2337       1     2457    5.479452050E-04
    2338       1     2458    5.479452050E-04
    2339       1     2459    5.479452050E-04
    2340       1     2460    5.479452050E-04
    2341       1     2461    5.479452050E-04
    2342       1     2462    5.479452050E-04
    2343       1     2463    5.479452050E-04
    2344       1     2464    5.479452050E-04
    2345       1     2465    5.479452050E-04
    2346       1     2466    5.479452050E-04
    2347       1     2467    5.479452050E-04
    2348       1     2468    5.479452050E-04
    2349       1     2469    5.479452050E-04
    2350       1     2470    5.479452050E-04
    2351       1     2471    5.479452050E-04
    2352       1     2472    5.479452050E-04
    2353       1     2473    5.479452050E-04
    2354       1     2474    5.479452050E-04
    2355       1     2475    5.479452050E-04
    2356       1     2476    5.479452050E-04
    2357       1     2477    5.479452050E-04
    2358       1     2478    5.479452050E-04
    2359       1     2479    5.479452050E-04
    2360       1     2480    5.479452050E-04
    2361       1     2481    5.479452050E-04
    2362       1     2482    5.479452050E-04
    2363       1     2483    5.479452050E-04
    2364       1     2484    5.479452050E-04
    2365       1     2485    5.479452050E-04
    2366       1     2486    5.479452050E-04
    2367       1     2489    5.479452050E-04
    2368       1     2490    5.479452050E-04
    2369       1     2491    5.479452050E-04
    2370       1     2492    5.479452050E-04
    2371       1     2493    5.479452050E-04
    2372       1     2494    5.479452050E-04
    2373       1     2495    5.479452050E-04
    2374       1     2496    5.479452050E-04
    2375       1     2497    5.479452050E-04
    2376       1     2498    5.479452050E-04
    2377       1     2499    5.479452050E-04
    2378       1     2500    5.479452050E-04
    2379       1     2501    5.479452050E-04
    2380       1     2502    5.479452050E-04
    2381       1     2503    5.479452050E-04
    2382       1     2504    5.479452050E-04
    2383       1     2505    5.479452050E-04
    2384       1     2506    5.479452050E-04
    2385       1     2507    5.479452050E-04
    2386       1     2508    5.479452050E-04
    2387       1     2509    5.479452050E-04
    2388       1     2510    5.479452050E-04
    2389       1     2511    5.479452050E-04
    2390       1     2512    5.479452050E-04
    2391       1     2513    5.479452050E-04
    2392       1     2514    5.479452050E-04
    2393       1     2515    5.479452050E-04
    2394       1     2516    5.479452050E-04
    2395       1     2517    5.479452050E-04
    2396       1     2518    5.479452050E-04
    2397       1     2519    5.479452050E-04
    2398       1     2520    5.479452050E-04
    2399       1     2521    5.479452050E-04
    2400       1     2522    5.479452050E-04
    2401       1     2523    5.479452050E-04
    2402       1     2524    5.479452050E-04
    2403       1     2525    5.479452050E-04
    2404       1     2526    5.479452050E-04
    2405       1     2527    5.479452050E-04
    2406       1     2528    5.479452050E-04
    2407       1     2529    5.479452050E-04
    2408       1     2530    5.479452050E-04
    2409       1     2531    5.479452050E-04
    2410       1     2532    5.479452050E-04
    2411       1     2533    5.479452050E-04
    2412       1     2534    5.479452050E-04
    2413       1     2535    5.479452050E-04
    2414       1     2536    5.479452050E-04
    2415       1     2537    5.479452050E-04
    2416       1     2538    5.479452050E-04
    2417       1     2539    5.479452050E-04
    2418       1     2540    5.479452050E-04
    2419       1     2541    5.479452050E-04
    2420       1     2542    5.479452050E-04
    2421       1     2543    5.479452050E-04
    2422       1     2544    5.479452050E-04
    2423       1     2545    5.479452050E-04
    2424       1     2546    5.479452050E-04
    2425       1     2547    5.479452050E-04
    2426       1     2548    5.479452050E-04
    2427       1     2549    5.479452050E-04
    2428       1     2550    5.479452050E-04
    2429       1     2551    5.479452050E-04
    2430       1     2552    5.479452050E-04
    2431       1     2553    5.479452050E-04
    2432       1     2554    5.479452050E-04
    2433       1     2555    5.479452050E-04
    2434       1     2556    5.479452050E-04
    2435       1     2557    5.479452050E-04
    2436       1     2558    5.479452050E-04
    2437       1     2559    5.479452050E-04
    2438       1     2560    5.479452050E-04
    2439       1     2561    5.479452050E-04
    2440       1     2562    5.479452050E-04
    2441       1     2563    5.479452050E-04
    2442       1     2567    5.479452050E-04
    2443       1     2568    5.479452050E-04
    2444       1     2569    5.479452050E-04
    2445       1     2570    5.479452050E-04
    2446       1     2571    5.479452050E-04
    2447       1     2572    5.479452050E-04
    2448       1     2573    5.479452050E-04
    2449       1     2574    5.479452050E-04
    2450       1     2575    5.479452050E-04
    2451       1     2576    5.479452050E-04
    2452       1     2577    5.479452050E-04
    2453       1     2578    5.479452050E-04
    2454       1     2579    5.479452050E-04
    2455       1     2580    5.479452050E-04
    2456       1     2581    5.479452050E-04
    2457       1     2582    5.479452050E-04
    2458       1     2583    5.479452050E-04
    2459       1     2584    5.479452050E-04
    2460       1     2585    5.479452050E-04
    2461       1     2586    5.479452050E-04
    2462       1     2587    5.479452050E-04
    2463       1     2588    5.479452050E-04
    2464       1     2589    5.479452050E-04
    2465       1     2590    5.479452050E-04
    2466       1     2591    5.479452050E-04
    2467       1     2592    5.479452050E-04
    2468       1     2593    5.479452050E-04
    2469       1     2594    5.479452050E-04
    2470       1     2595    5.479452050E-04
    2471       1     2596    5.479452050E-04
    2472       1     2597    5.479452050E-04
    2473       1     2598    5.479452050E-04
    2474       1     2599    5.479452050E-04
    2475       1     2600    5.479452050E-04
    2476       1     2601    5.479452050E-04
    2477       1     2602    5.479452050E-04
    2478       1     2603    5.479452050E-04
    2479       1     2604    5.479452050E-04
    2480       1     2605    5.479452050E-04
    2481       1     2606    5.479452050E-04
    2482       1     2607    5.479452050E-04
    2483       1     2608    5.479452050E-04
    2484       1     2609    5.479452050E-04
    2485       1     2610    5.479452050E-04
    2486       1     2611    5.479452050E-04
    2487       1     2612    5.479452050E-04
    2488       1     2613    5.479452050E-04
    2489       1     2614    5.479452050E-04
    2490       1     2615    5.479452050E-04
    2491       1     2616    5.479452050E-04
    2492       1     2617    5.479452050E-04
    2493       1     2618    5.479452050E-04
    2494       1     2619    5.479452050E-04
    2495       1     2620    5.479452050E-04
    2496       1     2621    5.479452050E-04
    2497       1     2622    5.479452050E-04
    2498       1     2623    5.479452050E-04
    2499       1     2624    5.479452050E-04
    2500       1     2625    5.479452050E-04
    2501       1     2626    5.479452050E-04
    2502       1     2627    5.479452050E-04
    2503       1     2628    5.479452050E-04
    2504       1     2629    5.479452050E-04
    2505       1     2630    5.479452050E-04
    2506       1     2631    5.479452050E-04
    2507       1     2632    5.479452050E-04
    2508       1     2633    5.479452050E-04
    2509       1     2634    5.479452050E-04
    2510       1     2637    5.479452050E-04
    2511       1     2638    5.479452050E-04
    2512       1     2639    5.479452050E-04
    2513       1     2640    5.479452050E-04
    2514       1     2641    5.479452050E-04
    2515       1     2642    5.479452050E-04
    2516       1     2643    5.479452050E-04
    2517       1     2644    5.479452050E-04
    2518       1     2645    5.479452050E-04
    2519       1     2646    5.479452050E-04
    2520       1     2647    5.479452050E-04
    2521       1     2648    5.479452050E-04
    2522       1     2649    5.479452050E-04
    2523       1     2650    5.479452050E-04
    2524       1     2651    5.479452050E-04
    2525       1     2652    5.479452050E-04
    2526       1     2653    5.479452050E-04
    2527       1     2654    5.479452050E-04
    2528       1     2655    5.479452050E-04
    2529       1     2656    5.479452050E-04
    2530       1     2657    5.479452050E-04
    2531       1     2658    5.479452050E-04
    2532       1     2659    5.479452050E-04
    2533       1     2660    5.479452050E-04
    2534       1     2661    5.479452050E-04
    2535       1     2662    5.479452050E-04
    2536       1     2663    5.479452050E-04
    2537       1     2664    5.479452050E-04
    2538       1     2665    5.479452050E-04
    2539       1     2666    5.479452050E-04
    2540       1     2667    5.479452050E-04
    2541       1     2668    5.479452050E-04
    2542       1     2669    5.479452050E-04
    2543       1     2670    5.479452050E-04
    2544       1     2671    5.479452050E-04
    2545       1     2672    5.479452050E-04
    2546       1     2673    5.479452050E-04
    2547       1     2674    5.479452050E-04
    2548       1     2675    5.479452050E-04
    2549       1     2676    5.479452050E-04
    2550       1     2677    5.479452050E-04
    2551       1     2678    5.479452050E-04
    2552       1     2679    5.479452050E-04
    2553       1     2680    5.479452050E-04
    2554       1     2681    5.479452050E-04
    2555       1     2682    5.479452050E-04
    2556       1     2683    5.479452050E-04
    2557       1     2684    5.479452050E-04
    2558       1     2685    5.479452050E-04
    2559       1     2686    5.479452050E-04
    2560       1     2687    5.479452050E-04
    2561       1     2688    5.479452050E-04
    2562       1     2689    5.479452050E-04
    2563       1     2690    5.479452050E-04
    2564       1     2691    5.479452050E-04
    2565       1     2692    5.479452050E-04
    2566       1     2693    5.479452050E-04
    2567       1     2694    5.479452050E-04
    2568       1     2695    5.479452050E-04
    2569       1     2696    5.479452050E-04
    2570       1     2697    5.479452050E-04
    2571       1     2698    5.479452050E-04
    2572       1     2699    5.479452050E-04
    2573       1     2700    5.479452050E-04
    2574       1     2701    5.479452050E-04
    2575       1     2702    5.479452050E-04
    2576       1     2703    5.479452050E-04
    2577       1     2706    5.479452050E-04
    2578       1     2707    5.479452050E-04
    2579       1     2708    5.479452050E-04
    2580       1     2709    5.479452050E-04
    2581       1     2710    5.479452050E-04
    2582       1     2711    5.479452050E-04
    2583       1     2712    5.479452050E-04
    2584       1     2713    5.479452050E-04
    2585       1     2714    5.479452050E-04
    2586       1     2715    5.479452050E-04
    2587       1     2716    5.479452050E-04
    2588       1     2717    5.479452050E-04
    2589       1     2718    5.479452050E-04
    2590       1     2719    5.479452050E-04
    2591       1     2720    5.479452050E-04
    2592       1     2721    5.479452050E-04
    2593       1     2722    5.479452050E-04
    2594       1     2723    5.479452050E-04
    2595       1     2724    5.479452050E-04
    2596       1     2725    5.479452050E-04
    2597       1     2726    5.479452050E-04
    2598       1     2727    5.479452050E-04
    2599       1     2728    5.479452050E-04
    2600       1     2729    5.479452050E-04
    2601       1     2730    5.479452050E-04
    2602       1     2731    5.479452050E-04
    2603       1     2732    5.479452050E-04
    2604       1     2733    5.479452050E-04
    2605       1     2734    5.479452050E-04
    2606       1     2735    5.479452050E-04
    2607       1     2736    5.479452050E-04
    2608       1     2737    5.479452050E-04
    2609       1     2738    5.479452050E-04
    2610       1     2739    5.479452050E-04
    2611       1     2740    5.479452050E-04
    2612       1     2741    5.479452050E-04
    2613       1     2742    5.479452050E-04
    2614       1     2743    5.479452050E-04
    2615       1     2744    5.479452050E-04
    2616       1     2745    5.479452050E-04
    2617       1     2746    5.479452050E-04
    2618       1     2747    5.479452050E-04
    2619       1     2748    5.479452050E-04
    2620       1     2749    5.479452050E-04
    2621       1     2750    5.479452050E-04
    2622       1     2751    5.479452050E-04
    2623       1     2752    5.479452050E-04
    2624       1     2753    5.479452050E-04
    2625       1     2754    5.479452050E-04
    2626       1     2755    5.479452050E-04
    2627       1     2756    5.479452050E-04
    2628       1     2757    5.479452050E-04
    2629       1     2758    5.479452050E-04
    2630       1     2759    5.479452050E-04
    2631       1     2760    5.479452050E-04
    2632       1     2761    5.479452050E-04
    2633       1     2762    5.479452050E-04
    2634       1     2763    5.479452050E-04
    2635       1     2764    5.479452050E-04
    2636       1     2765    5.479452050E-04
    2637       1     2766    5.479452050E-04
    2638       1     2767    5.479452050E-04
    2639       1     2768    5.479452050E-04
    2640       1     2769    5.479452050E-04
    2641       1     2770    5.479452050E-04
    2642       1     2771    5.479452050E-04
    2643       1     2772    5.479452050E-04
    2644       1     2773    5.479452050E-04
    2645       1     2774    5.479452050E-04
    2646       1     2775    5.479452050E-04
    2647       1     2776    5.479452050E-04
    2648       1     2777    5.479452050E-04
    2649       1     2778    5.479452050E-04
    2650       1     2779    5.479452050E-04
    2651       1     2780    5.479452050E-04
    2652       1     2781    5.479452050E-04
    2653       1     2782    5.479452050E-04
    2654       1     2783    5.479452050E-04
    2655       1     2786    5.479452050E-04
    2656       1     2787    5.479452050E-04
    2657       1     2788    5.479452050E-04
    2658       1     2789    5.479452050E-04
    2659       1     2790    5.479452050E-04
    2660       1     2791    5.479452050E-04
    2661       1     2792    5.479452050E-04
    2662       1     2793    5.479452050E-04
    2663       1     2794    5.479452050E-04
    2664       1     2795    5.479452050E-04
    2665       1     2796    5.479452050E-04
    2666       1     2797    5.479452050E-04
    2667       1     2798    5.479452050E-04
    2668       1     2799    5.479452050E-04
    2669       1     2800    5.479452050E-04
    2670       1     2801    5.479452050E-04
    2671       1     2802    5.479452050E-04
    2672       1     2803    5.479452050E-04
    2673       1     2804    5.479452050E-04
    2674       1     2805    5.479452050E-04
    2675       1     2806    5.479452050E-04
    2676       1     2807    5.479452050E-04
    2677       1     2808    5.479452050E-04
    2678       1     2809    5.479452050E-04
    2679       1     2810    5.479452050E-04
    2680       1     2811    5.479452050E-04
    2681       1     2812    5.479452050E-04
    2682       1     2813    5.479452050E-04
    2683       1     2814    5.479452050E-04
    2684       1     2815    5.479452050E-04
    2685       1     2816    5.479452050E-04
    2686       1     2817    5.479452050E-04
    2687       1     2818    5.479452050E-04
    2688       1     2819    5.479452050E-04
    2689       1     2820    5.479452050E-04
    2690       1     2821    5.479452050E-04
    2691       1     2822    5.479452050E-04
    2692       1     2823    5.479452050E-04
    2693       1     2824    5.479452050E-04
    2694       1     2825    5.479452050E-04
    2695       1     2826    5.479452050E-04
    2696       1     2827    5.479452050E-04
    2697       1     2828    5.479452050E-04
    2698       1     2829    5.479452050E-04
    2699       1     2830    5.479452050E-04
    2700       1     2831    5.479452050E-04
    2701       1     2832    5.479452050E-04
    2702       1     2833    5.479452050E-04
    2703       1     2834    5.479452050E-04
    2704       1     2835    5.479452050E-04
    2705       1     2836    5.479452050E-04
    2706       1     2837    5.479452050E-04
    2707       1     2838    5.479452050E-04
    2708       1     2839    5.479452050E-04
    2709       1     2840    5.479452050E-04
    2710       1     2841    5.479452050E-04
    2711       1     2842    5.479452050E-04
    2712       1     2843    5.479452050E-04
    2713       1     2844    5.479452050E-04
    2714       1     2845    5.479452050E-04
    2715       1     2846    5.479452050E-04
    2716       1     2847    5.479452050E-04
    2717       1     2848    5.479452050E-04
    2718       1     2849    5.479452050E-04
    2719       1     2850    5.479452050E-04
    2720       1     2851    5.479452050E-04
    2721       1     2852    5.479452050E-04
    2722       1     2853    5.479452050E-04
    2723       1     2854    5.479452050E-04
    2724       1     2857    5.479452050E-04
    2725       1     2858    5.479452050E-04
    2726       1     2859    5.479452050E-04
    2727       1     2860    5.479452050E-04
    2728       1     2861    5.479452050E-04
    2729       1     2862    5.479452050E-04
    2730       1     2863    5.479452050E-04
    2731       1     2864    5.479452050E-04
    2732       1     2865    5.479452050E-04
    2733       1     2866    5.479452050E-04
    2734       1     2867    5.479452050E-04
    2735       1     2868    5.479452050E-04
    2736       1     2869    5.479452050E-04
    2737       1     2870    5.479452050E-04
    2738       1     2871    5.479452050E-04
    2739       1     2872    5.479452050E-04
    2740       1     2873    5.479452050E-04
    2741       1     2874    5.479452050E-04
    2742       1     2875    5.479452050E-04
    2743       1     2876    5.479452050E-04
    2744       1     2877    5.479452050E-04
    2745       1     2878    5.479452050E-04
    2746       1     2879    5.479452050E-04
    2747       1     2880    5.479452050E-04
    2748       1     2881    5.479452050E-04
    2749       1     2882    5.479452050E-04
    2750       1     2883    5.479452050E-04
    2751       1     2884    5.479452050E-04
    2752       1     2885    5.479452050E-04
    2753       1     2886    5.479452050E-04
    2754       1     2887    5.479452050E-04
    2755       1     2888    5.479452050E-04
    2756       1     2889    5.479452050E-04
    2757       1     2890    5.479452050E-04
    2758       1     2891    5.479452050E-04
    2759       1     2892    5.479452050E-04
    2760       1     2893    5.479452050E-04
    2761       1     2894    5.479452050E-04
    2762       1     2895    5.479452050E-04
    2763       1     2896    5.479452050E-04
    2764       1     2897    5.479452050E-04
    2765       1     2898    5.479452050E-04
    2766       1     2899    5.479452050E-04
    2767       1     2900    5.479452050E-04
    2768       1     2901    5.479452050E-04
    2769       1     2902    5.479452050E-04
    2770       1     2903    5.479452050E-04
    2771       1     2904    5.479452050E-04
    2772       1     2905    5.479452050E-04
    2773       1     2906    5.479452050E-04
    2774       1     2907    5.479452050E-04
    2775       1     2908    5.479452050E-04
    2776       1     2909    5.479452050E-04
    2777       1     2910    5.479452050E-04
    2778       1     2911    5.479452050E-04
    2779       1     2912    5.479452050E-04
    2780       1     2913    5.479452050E-04
    2781       1     2914    5.479452050E-04
    2782       1     2915    5.479452050E-04
    2783       1     2916    5.479452050E-04
    2784       1     2917    5.479452050E-04
    2785       1     2918    5.479452050E-04
    2786       1     2919    5.479452050E-04
    2787       1     2922    5.479452050E-04
    2788       1     2923    5.479452050E-04
    2789       1     2924    5.479452050E-04
    2790       1     2925    5.479452050E-04
    2791       1     2926    5.479452050E-04
    2792       1     2927    5.479452050E-04
    2793       1     2928    5.479452050E-04
    2794       1     2929    5.479452050E-04
    2795       1     2930    5.479452050E-04
    2796       1     2931    5.479452050E-04
    2797       1     2932    5.479452050E-04
    2798       1     2933    5.479452050E-04
    2799       1     2934    5.479452050E-04
    2800       1     2935    5.479452050E-04
    2801       1     2936    5.479452050E-04
    2802       1     2937    5.479452050E-04
    2803       1     2938    5.479452050E-04
    2804       1     2939    5.479452050E-04
    2805       1     2940    5.479452050E-04
    2806       1     2941    5.479452050E-04
    2807       1     2942    5.479452050E-04
    2808       1     2943    5.479452050E-04
    2809       1     2944    5.479452050E-04
    2810       1     2945    5.479452050E-04
    2811       1     2946    5.479452050E-04
    2812       1     2947    5.479452050E-04
    2813       1     2948    5.479452050E-04
    2814       1     2949    5.479452050E-04
    2815       1     2950    5.479452050E-04
    2816       1     2951    5.479452050E-04
    2817       1     2952    5.479452050E-04
    2818       1     2953    5.479452050E-04
    2819       1     2954    5.479452050E-04
    2820       1     2955    5.479452050E-04
    2821       1     2956    5.479452050E-04
    2822       1     2957    5.479452050E-04
    2823       1     2958    5.479452050E-04
    2824       1     2959    5.479452050E-04
    2825       1     2960    5.479452050E-04
    2826       1     2961    5.479452050E-04
    2827       1     2962    5.479452050E-04
    2828       1     2963    5.479452050E-04
    2829       1     2964    5.479452050E-04
    2830       1     2965    5.479452050E-04
    2831       1     2966    5.479452050E-04
    2832       1     2967    5.479452050E-04
    2833       1     2968    5.479452050E-04
    2834       1     2969    5.479452050E-04
    2835       1     2972    5.479452050E-04
    2836       1     2973    5.479452050E-04
    2837       1     2974    5.479452050E-04
    2838       1     2975    5.479452050E-04
    2839       1     2976    5.479452050E-04
    2840       1     2977    5.479452050E-04
    2841       1     2978    5.479452050E-04
    2842       1     2979    5.479452050E-04
    2843       1     2980    5.479452050E-04
    2844       1     2981    5.479452050E-04
    2845       1     2982    5.479452050E-04
    2846       1     2983    5.479452050E-04
    2847       1     2984    5.479452050E-04
    2848       1     2985    5.479452050E-04
    2849       1     2986    5.479452050E-04
    2850       1     2987    5.479452050E-04
    2851       1     2988    5.479452050E-04
    2852       1     2989    5.479452050E-04
    2853       1     2990    5.479452050E-04
    2854       1     2991    5.479452050E-04
    2855       1     2992    5.479452050E-04
    2856       1     2993    5.479452050E-04
    2857       1     2994    5.479452050E-04
    2858       1     2995    5.479452050E-04
    2859       1     2996    5.479452050E-04
    2860       1     2997    5.479452050E-04
    2861       1     2998    5.479452050E-04
    2862       1     2999    5.479452050E-04
    2863       1     3000    5.479452050E-04
    2864       1     3001    5.479452050E-04
    2865       1     3002    5.479452050E-04
    2866       1     3003    5.479452050E-04
    2867       1     3004    5.479452050E-04
    2868       1     3005    5.479452050E-04
    2869       1     3006    5.479452050E-04
    2870       1     3007    5.479452050E-04
    2871       1     3008    5.479452050E-04
    2872       1     3009    5.479452050E-04
    2873       1     3010    5.479452050E-04
    2874       1     3011    5.479452050E-04
    2875       1     3012    5.479452050E-04
    2876       1     3013    5.479452050E-04
    2877       1     3014    5.479452050E-04
    2878       1     3019    5.479452050E-04
    2879       1     3020    5.479452050E-04
    2880       1     3021    5.479452050E-04
    2881       1     3022    5.479452050E-04
    2882       1     3023    5.479452050E-04
    2883       1     3024    5.479452050E-04
    2884       1     3025    5.479452050E-04
    2885       1     3026    5.479452050E-04
    2886       1     3027    5.479452050E-04
    2887       1     3028    5.479452050E-04
    2888       1     3029    5.479452050E-04
    2889       1     3030    5.479452050E-04
    2890       1     3031    5.479452050E-04
    2891       1     3032    5.479452050E-04
    2892       1     3033    5.479452050E-04
    2893       1     3034    5.479452050E-04
    2894       1     3035    5.479452050E-04
    2895       1     3036    5.479452050E-04
    2896       1     3037    5.479452050E-04
    2897       1     3038    5.479452050E-04
    2898       1     3039    5.479452050E-04
    2899       1     3040    5.479452050E-04
    2900       1     3041    5.479452050E-04
    2901       1     3042    5.479452050E-04
    2902       1     3043    5.479452050E-04
    2903       1     3044    5.479452050E-04
    2904       1     3045    5.479452050E-04
    2905       1     3046    5.479452050E-04
    2906       1     3047    5.479452050E-04
    2907       1     3048    5.479452050E-04
    2908       1     3049    5.479452050E-04
    2909       1     3050    5.479452050E-04
    2910       1     3051    5.479452050E-04
    2911       1     3052    5.479452050E-04
    2912       1     3053    5.479452050E-04
    2913       1     3054    5.479452050E-04
    2914       1     3062    5.479452050E-04
    2915       1     3063    5.479452050E-04
    2916       1     3064    5.479452050E-04
    2917       1     3065    5.479452050E-04
    2918       1     3066    5.479452050E-04
    2919       1     3067    5.479452050E-04
    2920       1     3068    5.479452050E-04
    2921       1     3069    5.479452050E-04
    2922       1     3070    5.479452050E-04
    2923       1     3071    5.479452050E-04
    2924       1     3072    5.479452050E-04
    2925       1     3073    5.479452050E-04
    2926       1     3074    5.479452050E-04
    2927       1     3075    5.479452050E-04
    2928       1     3076    5.479452050E-04
    2929       1     3077    5.479452050E-04
    2930       1     3098    5.479452050E-04
    2931       1     3099    5.479452050E-04
    2932       1     3100    5.479452050E-04
    2933       1     3101    5.479452050E-04
    2934       1     3102    5.479452050E-04
    2935       1     3103    5.479452050E-04
    2936       1     3104    5.479452050E-04
    2937       1     3105    5.479452050E-04
    2938       1     3106    5.479452050E-04
    2939       1     3107    5.479452050E-04
    2940       1     3108    5.479452050E-04
    2941       1     3109    5.479452050E-04
    2942       1     3110    5.479452050E-04
    2943       1     3111    5.479452050E-04
    2944       1     3113    5.479452050E-04
    2945       1     3114    5.479452050E-04
    2946       1     3115    5.479452050E-04
    2947       1     3116    5.479452050E-04
    2948       1     3117    5.479452050E-04
    2949       1     3118    5.479452050E-04
    2950       1     3119    5.479452050E-04
    2951       1     3120    5.479452050E-04
    2952       1     3121    5.479452050E-04
    2953       1     3122    5.479452050E-04
    2954       1     3123    5.479452050E-04
    2955       1     3124    5.479452050E-04
 -------------------------------------------



 REUSING SFRS FROM LAST STRESS PERIOD
 UBDSV1 SAVING           STO-SS ON UNIT   1020 AT TIME STEP      1, STRESS PERIOD      2
 UBDSV1 SAVING           STO-SY ON UNIT   1020 AT TIME STEP      1, STRESS PERIOD      2
 UBDSV1 SAVING     FLOW-JA-FACE ON UNIT   1020 AT TIME STEP      1, STRESS PERIOD      2
 UBDSV06 SAVING              GHB IN MODEL EXPERIMENTAL     PACKAGE EXPERIMENTAL    CONNECTED TO MODEL EXPERIMENTAL     PACKAGE GHB              ON UNIT   1020 AT TIME STEP      1, STRESS PERIOD      2
 UBDSV06 SAVING              RCH IN MODEL EXPERIMENTAL     PACKAGE EXPERIMENTAL    CONNECTED TO MODEL EXPERIMENTAL     PACKAGE RCH              ON UNIT   1020 AT TIME STEP      1, STRESS PERIOD      2
 UBDSV06 SAVING              SFR IN MODEL EXPERIMENTAL     PACKAGE EXPERIMENTAL    CONNECTED TO MODEL EXPERIMENTAL     PACKAGE SFR              ON UNIT   1020 AT TIME STEP      1, STRESS PERIOD      2
 UBDSV06 SAVING     FLOW-JA-FACE IN MODEL EXPERIMENTAL     PACKAGE SFR             CONNECTED TO MODEL EXPERIMENTAL     PACKAGE SFR              ON UNIT   1016 AT TIME STEP      1, STRESS PERIOD      2
 UBDSV06 SAVING              GWF IN MODEL EXPERIMENTAL     PACKAGE SFR             CONNECTED TO MODEL EXPERIMENTAL     PACKAGE EXPERIMENTAL     ON UNIT   1016 AT TIME STEP      1, STRESS PERIOD      2
 UBDSV06 SAVING         RAINFALL IN MODEL EXPERIMENTAL     PACKAGE SFR             CONNECTED TO MODEL EXPERIMENTAL     PACKAGE SFR              ON UNIT   1016 AT TIME STEP      1, STRESS PERIOD      2
 UBDSV06 SAVING      EVAPORATION IN MODEL EXPERIMENTAL     PACKAGE SFR             CONNECTED TO MODEL EXPERIMENTAL     PACKAGE SFR              ON UNIT   1016 AT TIME STEP      1, STRESS PERIOD      2
 UBDSV06 SAVING           RUNOFF IN MODEL EXPERIMENTAL     PACKAGE SFR             CONNECTED TO MODEL EXPERIMENTAL     PACKAGE SFR              ON UNIT   1016 AT TIME STEP      1, STRESS PERIOD      2
 UBDSV06 SAVING       EXT-INFLOW IN MODEL EXPERIMENTAL     PACKAGE SFR             CONNECTED TO MODEL EXPERIMENTAL     PACKAGE SFR              ON UNIT   1016 AT TIME STEP      1, STRESS PERIOD      2
 UBDSV06 SAVING      EXT-OUTFLOW IN MODEL EXPERIMENTAL     PACKAGE SFR             CONNECTED TO MODEL EXPERIMENTAL     PACKAGE SFR              ON UNIT   1016 AT TIME STEP      1, STRESS PERIOD      2
 UBDSV06 SAVING          STORAGE IN MODEL EXPERIMENTAL     PACKAGE SFR             CONNECTED TO MODEL EXPERIMENTAL     PACKAGE SFR              ON UNIT   1016 AT TIME STEP      1, STRESS PERIOD      2
1
  HEAD IN LAYER   1 AT END OF TIME STEP   1 IN STRESS PERIOD    2
  ---------------------------------------------------------------------------

                1               2               3               4               5               6               7               8               9              10
               11              12              13              14              15              16              17              18              19              20
               21              22              23              24              25              26              27              28              29              30
               31              32              33              34              35              36              37              38              39              40
               41              42              43              44              45              46              47              48              49              50
               51              52              53              54              55              56              57              58              59              60
               61              62              63              64              65              66              67              68              69              70
               71              72              73              74              75              76              77              78              79              80
               81              82              83              84              85              86              87              88              89              90
               91              92              93              94              95              96              97              98              99             100
              101             102             103             104             105             106             107             108             109             110
              111             112             113             114             115             116             117             118             119             120
              121             122             123             124             125             126             127             128             129             130
              131             132             133             134             135             136             137             138             139             140
              141             142             143             144             145             146             147             148             149             150
              151             152             153             154             155             156             157             158             159             160
              161             162             163             164             165             166             167             168             169             170
              171             172             173             174             175             176             177             178             179             180
              181             182             183             184             185             186             187             188             189             190
              191             192             193             194             195             196             197             198             199             200
              201             202             203             204             205             206             207             208             209             210
              211             212             213             214             215             216             217             218             219             220
              221             222             223             224             225             226             227             228             229             230
              231             232             233             234             235             236             237             238             239             240
              241             242             243             244             245             246             247             248             249             250
              251             252             253             254             255             256             257             258             259             260
              261             262             263             264             265             266             267             268             269             270
              271             272             273             274             275             276             277             278             279             280
              281             282             283             284             285             286             287             288             289             290
              291             292             293             294             295             296             297             298             299             300
              301             302             303             304             305             306             307             308             309             310
              311             312             313             314             315             316             317             318             319             320
              321             322             323             324             325             326             327             328             329             330
              331             332             333             334             335             336             337             338             339             340
              341             342             343             344             345             346             347             348             349             350
              351             352             353             354             355             356             357             358             359             360
              361             362             363             364             365             366             367             368             369             370
              371             372             373             374             375             376             377             378             379             380
              381             382             383             384             385             386             387             388             389             390
              391             392             393             394             395             396             397             398             399             400
              401             402             403             404             405             406             407             408             409             410
              411             412             413             414             415             416             417             418             419             420
              421             422             423             424             425             426             427             428             429             430
              431             432             433             434             435             436             437             438             439             440
              441             442             443             444             445             446             447             448             449             450
              451             452             453             454             455             456             457             458             459             460
              461             462             463             464             465             466             467             468             469             470
              471             472             473             474             475             476             477             478             479             480
              481             482             483             484             485             486             487             488             489             490
              491             492             493             494             495             496             497             498             499             500
              501             502             503             504             505             506             507             508             509             510
              511             512             513             514             515             516             517             518             519             520
              521             522             523             524             525             526             527             528             529             530
              531             532             533             534             535             536             537             538             539             540
              541             542             543             544             545             546             547             548             549             550
              551             552             553             554             555             556             557             558             559             560
              561             562             563             564             565             566             567             568             569             570
              571             572             573             574             575             576             577             578             579             580
              581             582             583             584             585             586             587             588             589             590
              591             592             593             594             595             596             597             598             599             600
              601             602             603             604             605             606             607             608             609             610
              611             612             613             614             615             616             617             618             619             620
              621             622             623             624             625             626             627             628             629             630
              631             632             633             634             635             636             637             638             639             640
              641             642             643             644             645             646             647             648             649             650
              651             652             653             654             655             656             657             658             659             660
              661             662             663             664             665             666             667             668             669             670
              671             672             673             674             675             676             677             678             679             680
              681             682             683             684             685             686             687             688             689             690
              691             692             693             694             695             696             697             698             699             700
              701             702             703             704             705             706             707             708             709             710
              711             712             713             714             715             716             717             718             719             720
              721             722             723             724             725             726             727             728             729             730
              731             732             733             734             735             736             737             738             739             740
              741             742             743             744             745             746             747             748             749             750
              751             752             753             754             755             756             757             758             759             760
              761             762             763             764             765             766             767             768             769             770
              771             772             773             774             775             776             777             778             779             780
              781             782             783             784             785             786             787             788             789             790
              791             792             793             794             795             796             797             798             799             800
              801             802             803             804             805             806             807             808             809             810
              811             812             813             814             815             816             817             818             819             820
              821             822             823             824             825             826             827             828             829             830
              831             832             833             834             835             836             837             838             839             840
              841             842             843             844             845             846             847             848             849             850
              851             852             853             854             855             856             857             858             859             860
              861             862             863             864             865             866             867             868             869             870
              871             872             873             874             875             876             877             878             879             880
              881             882             883             884             885             886             887             888             889             890
              891             892             893             894             895             896             897             898             899             900
              901             902             903             904             905             906             907             908             909             910
              911             912             913             914             915             916             917             918             919             920
              921             922             923             924             925             926             927             928             929             930
              931             932             933             934             935             936             937             938             939             940
              941             942             943             944             945             946             947             948             949             950
              951             952             953             954             955             956             957             958             959             960
              961             962             963             964             965             966             967             968             969             970
              971             972             973             974             975             976             977             978             979             980
              981             982             983             984             985             986             987             988             989             990
              991             992             993             994             995             996             997             998             999            1000
             1001            1002            1003            1004            1005            1006            1007            1008            1009            1010
             1011            1012            1013            1014            1015            1016            1017            1018            1019            1020
             1021            1022            1023            1024            1025            1026            1027            1028            1029            1030
             1031            1032            1033            1034            1035            1036            1037            1038            1039            1040
             1041            1042            1043            1044            1045            1046            1047            1048            1049            1050
             1051            1052            1053            1054            1055            1056            1057            1058            1059            1060
             1061            1062            1063            1064            1065            1066            1067            1068            1069            1070
             1071            1072            1073            1074            1075            1076            1077            1078            1079            1080
             1081            1082            1083            1084            1085            1086            1087            1088            1089            1090
             1091            1092            1093            1094            1095            1096            1097            1098            1099            1100
             1101            1102            1103            1104            1105            1106            1107            1108            1109            1110
             1111            1112            1113            1114            1115            1116            1117            1118            1119            1120
             1121            1122            1123            1124            1125            1126            1127            1128            1129            1130
             1131            1132            1133            1134            1135            1136            1137            1138            1139            1140
             1141            1142            1143            1144            1145            1146            1147            1148            1149            1150
             1151            1152            1153            1154            1155            1156            1157            1158            1159            1160
             1161            1162            1163            1164            1165            1166            1167            1168            1169            1170
             1171            1172            1173            1174            1175            1176            1177            1178            1179            1180
             1181            1182            1183            1184            1185            1186            1187            1188            1189            1190
             1191            1192            1193            1194            1195            1196            1197            1198            1199            1200
             1201            1202            1203            1204            1205            1206            1207            1208            1209            1210
             1211            1212            1213            1214            1215            1216            1217            1218            1219            1220
             1221            1222            1223            1224            1225            1226            1227            1228            1229            1230
             1231            1232            1233            1234            1235            1236            1237            1238            1239            1240
             1241            1242            1243            1244            1245            1246            1247            1248            1249            1250
             1251            1252            1253            1254            1255            1256            1257            1258            1259            1260
             1261            1262            1263            1264            1265            1266            1267            1268            1269            1270
             1271            1272            1273            1274            1275            1276            1277            1278            1279            1280
             1281            1282            1283            1284            1285            1286            1287            1288            1289            1290
             1291            1292            1293            1294            1295            1296            1297            1298            1299            1300
             1301            1302            1303            1304            1305            1306            1307            1308            1309            1310
             1311            1312            1313            1314            1315            1316            1317            1318            1319            1320
             1321            1322            1323            1324            1325            1326            1327            1328            1329            1330
             1331            1332            1333            1334            1335            1336            1337            1338            1339            1340
             1341            1342            1343            1344            1345            1346            1347            1348            1349            1350
             1351            1352            1353            1354            1355            1356            1357            1358            1359            1360
             1361            1362            1363            1364            1365            1366            1367            1368            1369            1370
             1371            1372            1373            1374            1375            1376            1377            1378            1379            1380
             1381            1382            1383            1384            1385            1386            1387            1388            1389            1390
             1391            1392            1393            1394            1395            1396            1397            1398            1399            1400
             1401            1402            1403            1404            1405            1406            1407            1408            1409            1410
             1411            1412            1413            1414            1415            1416            1417            1418            1419            1420
             1421            1422            1423            1424            1425            1426            1427            1428            1429            1430
             1431            1432            1433            1434            1435            1436            1437            1438            1439            1440
             1441            1442            1443            1444            1445            1446            1447            1448            1449            1450
             1451            1452            1453            1454            1455            1456            1457            1458            1459            1460
             1461            1462            1463            1464            1465            1466            1467            1468            1469            1470
             1471            1472            1473            1474            1475            1476            1477            1478            1479            1480
             1481            1482            1483            1484            1485            1486            1487            1488            1489            1490
             1491            1492            1493            1494            1495            1496            1497            1498            1499            1500
             1501            1502            1503            1504            1505            1506            1507            1508            1509            1510
             1511            1512            1513            1514            1515            1516            1517            1518            1519            1520
             1521            1522            1523            1524            1525            1526            1527            1528            1529            1530
             1531            1532            1533            1534            1535            1536            1537            1538            1539            1540
             1541            1542            1543            1544            1545            1546            1547            1548            1549            1550
             1551            1552            1553            1554            1555            1556            1557            1558            1559            1560
             1561            1562            1563            1564            1565            1566            1567            1568            1569            1570
             1571            1572            1573            1574            1575            1576            1577            1578            1579            1580
             1581            1582            1583            1584            1585            1586            1587            1588            1589            1590
             1591            1592            1593            1594            1595            1596            1597            1598            1599            1600
             1601            1602            1603            1604            1605            1606            1607            1608            1609            1610
             1611            1612            1613            1614            1615            1616            1617            1618            1619            1620
             1621            1622            1623            1624            1625            1626            1627            1628            1629            1630
             1631            1632            1633            1634            1635            1636            1637            1638            1639            1640
             1641            1642            1643            1644            1645            1646            1647            1648            1649            1650
             1651            1652            1653            1654            1655            1656            1657            1658            1659            1660
             1661            1662            1663            1664            1665            1666            1667            1668            1669            1670
             1671            1672            1673            1674            1675            1676            1677            1678            1679            1680
             1681            1682            1683            1684            1685            1686            1687            1688            1689            1690
             1691            1692            1693            1694            1695            1696            1697            1698            1699            1700
             1701            1702            1703            1704            1705            1706            1707            1708            1709            1710
             1711            1712            1713            1714            1715            1716            1717            1718            1719            1720
             1721            1722            1723            1724            1725            1726            1727            1728            1729            1730
             1731            1732            1733            1734            1735            1736            1737            1738            1739            1740
             1741            1742            1743            1744            1745            1746            1747            1748            1749            1750
             1751            1752            1753            1754            1755            1756            1757            1758            1759            1760
             1761            1762            1763            1764            1765            1766            1767            1768            1769            1770
             1771            1772            1773            1774            1775            1776            1777            1778            1779            1780
             1781            1782            1783            1784            1785            1786            1787            1788            1789            1790
             1791            1792            1793            1794            1795            1796            1797            1798            1799            1800
             1801            1802            1803            1804            1805            1806            1807            1808            1809            1810
             1811            1812            1813            1814            1815            1816            1817            1818            1819            1820
             1821            1822            1823            1824            1825            1826            1827            1828            1829            1830
             1831            1832            1833            1834            1835            1836            1837            1838            1839            1840
             1841            1842            1843            1844            1845            1846            1847            1848            1849            1850
             1851            1852            1853            1854            1855            1856            1857            1858            1859            1860
             1861            1862            1863            1864            1865            1866            1867            1868            1869            1870
             1871            1872            1873            1874            1875            1876            1877            1878            1879            1880
             1881            1882            1883            1884            1885            1886            1887            1888            1889            1890
             1891            1892            1893            1894            1895            1896            1897            1898            1899            1900
             1901            1902            1903            1904            1905            1906            1907            1908            1909            1910
             1911            1912            1913            1914            1915            1916            1917            1918            1919            1920
             1921            1922            1923            1924            1925            1926            1927            1928            1929            1930
             1931            1932            1933            1934            1935            1936            1937            1938            1939            1940
             1941            1942            1943            1944            1945            1946            1947            1948            1949            1950
             1951            1952            1953            1954            1955            1956            1957            1958            1959            1960
             1961            1962            1963            1964            1965            1966            1967            1968            1969            1970
             1971            1972            1973            1974            1975            1976            1977            1978            1979            1980
             1981            1982            1983            1984            1985            1986            1987            1988            1989            1990
             1991            1992            1993            1994            1995            1996            1997            1998            1999            2000
             2001            2002            2003            2004            2005            2006            2007            2008            2009            2010
             2011            2012            2013            2014            2015            2016            2017            2018            2019            2020
             2021            2022            2023            2024            2025            2026            2027            2028            2029            2030
             2031            2032            2033            2034            2035            2036            2037            2038            2039            2040
             2041            2042            2043            2044            2045            2046            2047            2048            2049            2050
             2051            2052            2053            2054            2055            2056            2057            2058            2059            2060
             2061            2062            2063            2064            2065            2066            2067            2068            2069            2070
             2071            2072            2073            2074            2075            2076            2077            2078            2079            2080
             2081            2082            2083            2084            2085            2086            2087            2088            2089            2090
             2091            2092            2093            2094            2095            2096            2097            2098            2099            2100
             2101            2102            2103            2104            2105            2106            2107            2108            2109            2110
             2111            2112            2113            2114            2115            2116            2117            2118            2119            2120
             2121            2122            2123            2124            2125            2126            2127            2128            2129            2130
             2131            2132            2133            2134            2135            2136            2137            2138            2139            2140
             2141            2142            2143            2144            2145            2146            2147            2148            2149            2150
             2151            2152            2153            2154            2155            2156            2157            2158            2159            2160
             2161            2162            2163            2164            2165            2166            2167            2168            2169            2170
             2171            2172            2173            2174            2175            2176            2177            2178            2179            2180
             2181            2182            2183            2184            2185            2186            2187            2188            2189            2190
             2191            2192            2193            2194            2195            2196            2197            2198            2199            2200
             2201            2202            2203            2204            2205            2206            2207            2208            2209            2210
             2211            2212            2213            2214            2215            2216            2217            2218            2219            2220
             2221            2222            2223            2224            2225            2226            2227            2228            2229            2230
             2231            2232            2233            2234            2235            2236            2237            2238            2239            2240
             2241            2242            2243            2244            2245            2246            2247            2248            2249            2250
             2251            2252            2253            2254            2255            2256            2257            2258            2259            2260
             2261            2262            2263            2264            2265            2266            2267            2268            2269            2270
             2271            2272            2273            2274            2275            2276            2277            2278            2279            2280
             2281            2282            2283            2284            2285            2286            2287            2288            2289            2290
             2291            2292            2293            2294            2295            2296            2297            2298            2299            2300
             2301            2302            2303            2304            2305            2306            2307            2308            2309            2310
             2311            2312            2313            2314            2315            2316            2317            2318            2319            2320
             2321            2322            2323            2324            2325            2326            2327            2328            2329            2330
             2331            2332            2333            2334            2335            2336            2337            2338            2339            2340
             2341            2342            2343            2344            2345            2346            2347            2348            2349            2350
             2351            2352            2353            2354            2355            2356            2357            2358            2359            2360
             2361            2362            2363            2364            2365            2366            2367            2368            2369            2370
             2371            2372            2373            2374            2375            2376            2377            2378            2379            2380
             2381            2382            2383            2384            2385            2386            2387            2388            2389            2390
             2391            2392            2393            2394            2395            2396            2397            2398            2399            2400
             2401            2402            2403            2404            2405            2406            2407            2408            2409            2410
             2411            2412            2413            2414            2415            2416            2417            2418            2419            2420
             2421            2422            2423            2424            2425            2426            2427            2428            2429            2430
             2431            2432            2433            2434            2435            2436            2437            2438            2439            2440
             2441            2442            2443            2444            2445            2446            2447            2448            2449            2450
             2451            2452            2453            2454            2455            2456            2457            2458            2459            2460
             2461            2462            2463            2464            2465            2466            2467            2468            2469            2470
             2471            2472            2473            2474            2475            2476            2477            2478            2479            2480
             2481            2482            2483            2484            2485            2486            2487            2488            2489            2490
             2491            2492            2493            2494            2495            2496            2497            2498            2499            2500
             2501            2502            2503            2504            2505            2506            2507            2508            2509            2510
             2511            2512            2513            2514            2515            2516            2517            2518            2519            2520
             2521            2522            2523            2524            2525            2526            2527            2528            2529            2530
             2531            2532            2533            2534            2535            2536            2537            2538            2539            2540
             2541            2542            2543            2544            2545            2546            2547            2548            2549            2550
             2551            2552            2553            2554            2555            2556            2557            2558            2559            2560
             2561            2562            2563            2564            2565            2566            2567            2568            2569            2570
             2571            2572            2573            2574            2575            2576            2577            2578            2579            2580
             2581            2582            2583            2584            2585            2586            2587            2588            2589            2590
             2591            2592            2593            2594            2595            2596            2597            2598            2599            2600
             2601            2602            2603            2604            2605            2606            2607            2608            2609            2610
             2611            2612            2613            2614            2615            2616            2617            2618            2619            2620
             2621            2622            2623            2624            2625            2626            2627            2628            2629            2630
             2631            2632            2633            2634            2635            2636            2637            2638            2639            2640
             2641            2642            2643            2644            2645            2646            2647            2648            2649            2650
             2651            2652            2653            2654            2655            2656            2657            2658            2659            2660
             2661            2662            2663            2664            2665            2666            2667            2668            2669            2670
             2671            2672            2673            2674            2675            2676            2677            2678            2679            2680
             2681            2682            2683            2684            2685            2686            2687            2688            2689            2690
             2691            2692            2693            2694            2695            2696            2697            2698            2699            2700
             2701            2702            2703            2704            2705            2706            2707            2708            2709            2710
             2711            2712            2713            2714            2715            2716            2717            2718            2719            2720
             2721            2722            2723            2724            2725            2726            2727            2728            2729            2730
             2731            2732            2733            2734            2735            2736            2737            2738            2739            2740
             2741            2742            2743            2744            2745            2746            2747            2748            2749            2750
             2751            2752            2753            2754            2755            2756            2757            2758            2759            2760
             2761            2762            2763            2764            2765            2766            2767            2768            2769            2770
             2771            2772            2773            2774            2775            2776            2777            2778            2779            2780
             2781            2782            2783            2784            2785            2786            2787            2788            2789            2790
             2791            2792            2793            2794            2795            2796            2797            2798            2799            2800
             2801            2802            2803            2804            2805            2806            2807            2808            2809            2810
             2811            2812            2813            2814            2815            2816            2817            2818            2819            2820
             2821            2822            2823            2824            2825            2826            2827            2828            2829            2830
             2831            2832            2833            2834            2835            2836            2837            2838            2839            2840
             2841            2842            2843            2844            2845            2846            2847            2848            2849            2850
             2851            2852            2853            2854            2855            2856            2857            2858            2859            2860
             2861            2862            2863            2864            2865            2866            2867            2868            2869            2870
             2871            2872            2873            2874            2875            2876            2877            2878            2879            2880
             2881            2882            2883            2884            2885            2886            2887            2888            2889            2890
             2891            2892            2893            2894            2895            2896            2897            2898            2899            2900
             2901            2902            2903            2904            2905            2906            2907            2908            2909            2910
             2911            2912            2913            2914            2915            2916            2917            2918            2919            2920
             2921            2922            2923            2924            2925            2926            2927            2928            2929            2930
             2931            2932            2933            2934            2935            2936            2937            2938            2939            2940
             2941            2942            2943            2944            2945            2946            2947            2948            2949            2950
             2951            2952            2953            2954            2955            2956            2957            2958            2959            2960
             2961            2962            2963            2964            2965            2966            2967            2968            2969            2970
             2971            2972            2973            2974            2975            2976            2977            2978            2979            2980
             2981            2982            2983            2984            2985            2986            2987            2988            2989            2990
             2991            2992            2993            2994            2995            2996            2997            2998            2999            3000
             3001            3002            3003            3004            3005            3006            3007            3008            3009            3010
             3011            3012            3013            3014            3015            3016            3017            3018            3019            3020
             3021            3022            3023            3024            3025            3026            3027            3028            3029            3030
             3031            3032            3033            3034            3035            3036            3037            3038            3039            3040
             3041            3042            3043            3044            3045            3046            3047            3048            3049            3050
             3051            3052            3053            3054            3055            3056            3057            3058            3059            3060
             3061            3062            3063            3064            3065            3066            3067            3068            3069            3070
             3071            3072            3073            3074            3075            3076            3077            3078            3079            3080
             3081            3082            3083            3084            3085            3086            3087            3088            3089            3090
             3091            3092            3093            3094            3095            3096            3097            3098            3099            3100
             3101            3102            3103            3104            3105            3106            3107            3108            3109            3110
             3111            3112            3113            3114            3115            3116            3117            3118            3119            3120
             3121            3122            3123            3124            3125            3126            3127            3128            3129            3130
             3131            3132            3133            3134            3135
 ................................................................................................................................................................
   1      133.731         133.719         133.684         133.611         133.568         133.560         133.439         133.417         133.537         133.626    
          133.705         133.775         133.839         133.900         133.958         134.014         134.068         134.122         134.173         134.222    
          134.270         134.314         134.349         133.628         133.653         133.646         133.614         133.550         133.452         133.373    
          133.470         133.421         133.366         133.426         133.369         133.353         133.498         133.595         133.676         133.749    
          133.818         133.884         133.949         134.012         134.073         134.131         134.188         134.244         134.302         134.369    
          134.477         133.596         133.606         133.614         133.607         133.583         133.540         133.480         133.422         133.398    
          133.451         133.436         133.403         133.452         133.423         133.408         133.504         133.540         133.455         133.505    
          133.589         133.670         133.747         133.822         133.895         133.964         134.031         134.096         134.159         134.221    
          134.287         134.359         134.445         134.539         133.580         133.586         133.591         133.593         133.586         133.570    
          133.543         133.510         133.479         133.451         133.410         133.457         133.431         133.411         133.506         133.541    
          133.458         133.507         133.592         133.678         133.763         133.845         133.923         133.995         134.064         134.131    
          134.198         134.267         134.341         134.421         134.506         134.596         133.568         133.572         133.577         133.580    
          133.581         133.576         133.566         133.550         133.530         133.509         133.487         133.458         133.411         133.460    
          133.436         133.413         133.510         133.548         133.462         133.514         133.605         133.704         133.799         133.885    
          133.962         134.034         134.104         134.173         134.245         134.321         134.400         134.482         134.569         134.659    
          133.555         133.560         133.565         133.570         133.573         133.574         133.572         133.567         133.558         133.546    
          133.533         133.519         133.499         133.469         133.416         133.465         133.446         133.420         133.516         133.563    
          133.453         133.523         133.641         133.759         133.855         133.934         134.006         134.076         134.147         134.221    
          134.298         134.379         134.463         134.550         134.640         134.735         133.539         133.545         133.552         133.559    
          133.564         133.569         133.571         133.572         133.570         133.567         133.561         133.555         133.547         133.536    
          133.520         133.492         133.433         133.467         133.478         133.450         133.553         133.626         133.500         133.611    
          133.736         133.837         133.912         133.980         134.047         134.118         134.193         134.273         134.357         134.444    
          134.535         134.630         134.729         134.833         133.512         133.526         133.536         133.546         133.554         133.560    
          133.566         133.571         133.574         133.575         133.576         133.575         133.574         133.573         133.570         133.567    
          133.562         133.555         133.504         133.613         133.605         133.668         133.728         133.780         133.782         133.818    
          133.843         133.896         133.951         134.013         134.082         134.160         134.244         134.333         134.425         134.521    
          134.623         134.732         134.851         134.985         133.472         133.498         133.516         133.529         133.540         133.549    
          133.558         133.565         133.571         133.577         133.581         133.585         133.588         133.592         133.596         133.602    
          133.609         133.620         133.643         133.698         133.771         133.811         133.768         133.800         133.844         133.857    
          133.831         133.848         133.873         133.888         133.866         133.876         133.913         133.934         133.891         133.918    
          133.969         134.035         134.118         134.210         134.305         134.403         134.505         134.612         134.731         134.870    
          135.057         135.381         135.582         135.730         135.842         135.932         136.009         136.077         136.138         136.194    
          136.245         136.294         136.345         136.395         136.444         136.491         136.541         136.598         136.653         136.703    
          136.683       -1.000000E+30   -1.000000E+30   -1.000000E+30   -1.000000E+30   -1.000000E+30   -1.000000E+30   -1.000000E+30   -1.000000E+30   -1.000000E+30
        -1.000000E+30   -1.000000E+30   -1.000000E+30   -1.000000E+30   -1.000000E+30   -1.000000E+30   -1.000000E+30     133.468         133.491         133.509    
          133.523         133.536         133.547         133.556         133.565         133.573         133.580         133.587         133.594         133.601    
          133.609         133.617         133.628         133.642         133.661         133.690         133.733         133.786         133.833         133.867    
          133.884         133.892         133.886         133.892         133.916         133.937         133.895         133.902         133.966         133.996    
          133.917         133.952         134.063         134.171         134.274         134.377         134.483         134.594         134.715         134.851    
          135.016         135.218         135.388         135.528         135.643         135.736         135.815         135.883         135.942         135.996    
          136.043         136.084         136.123         136.158         136.187         136.209         136.221         136.215         136.177       -1.000000E+30
        -1.000000E+30   -1.000000E+30   -1.000000E+30   -1.000000E+30   -1.000000E+30   -1.000000E+30   -1.000000E+30   -1.000000E+30   -1.000000E+30   -1.000000E+30
        -1.000000E+30   -1.000000E+30   -1.000000E+30   -1.000000E+30   -1.000000E+30   -1.000000E+30   -1.000000E+30   -1.000000E+30     133.465         133.486    
          133.504         133.519         133.533         133.545         133.555         133.566         133.575         133.584         133.593         133.603    
          133.612         133.623         133.635         133.649         133.667         133.690         133.718         133.755         133.795         133.834    
          133.868         133.894         133.914         133.921         133.920         133.925         133.918         134.010         134.131         134.241    
          134.348         134.455         134.567         134.686         134.814         134.956         135.110         135.251         135.379         135.488    
          135.580         135.660         135.727         135.785         135.836         135.881         135.920         135.952         135.980         136.001    
          136.014         136.014         135.994       -1.000000E+30   -1.000000E+30   -1.000000E+30   -1.000000E+30   -1.000000E+30   -1.000000E+30   -1.000000E+30
        -1.000000E+30   -1.000000E+30   -1.000000E+30   -1.000000E+30   -1.000000E+30   -1.000000E+30   -1.000000E+30   -1.000000E+30   -1.000000E+30   -1.000000E+30
        -1.000000E+30   -1.000000E+30   -1.000000E+30   -1.000000E+30     133.462         133.483         133.501         133.517         133.531         133.544    
          133.555         133.567         133.578         133.589         133.599         133.611         133.622         133.635         133.650         133.667    
          133.687         133.710         133.738         133.770         133.806         133.841         133.874         133.904         133.930         133.939    
          133.941         133.953         133.963         133.940         133.974         133.982         134.017         134.096         134.208         134.315    
          134.423         134.534         134.649         134.768         134.895         135.024         135.147         135.261         135.365         135.454    
          135.531         135.597         135.654         135.703         135.746         135.784         135.814         135.838         135.855         135.866    
          135.867         135.852       -1.000000E+30   -1.000000E+30   -1.000000E+30   -1.000000E+30   -1.000000E+30   -1.000000E+30   -1.000000E+30   -1.000000E+30
        -1.000000E+30   -1.000000E+30   -1.000000E+30   -1.000000E+30   -1.000000E+30   -1.000000E+30   -1.000000E+30   -1.000000E+30   -1.000000E+30   -1.000000E+30
        -1.000000E+30   -1.000000E+30   -1.000000E+30   -1.000000E+30     133.460         133.481         133.499         133.515         133.530         133.543    
          133.556         133.568         133.580         133.593         133.605         133.618         133.631         133.646         133.662         133.681    
          133.701         133.725         133.752         133.783         133.815         133.848         133.882         133.914         133.946         133.979    
          134.003         134.028         134.014         134.033         134.055         134.098         134.054         134.086         134.175         134.279    
          134.385         134.495         134.607         134.721         134.837         134.953         135.062         135.166         135.263         135.347    
          135.422         135.486         135.541         135.589         135.630         135.666         135.694         135.717         135.733         135.743    
          135.746         135.731       -1.000000E+30   -1.000000E+30   -1.000000E+30   -1.000000E+30   -1.000000E+30   -1.000000E+30   -1.000000E+30   -1.000000E+30
        -1.000000E+30   -1.000000E+30   -1.000000E+30   -1.000000E+30   -1.000000E+30   -1.000000E+30   -1.000000E+30   -1.000000E+30   -1.000000E+30   -1.000000E+30
        -1.000000E+30   -1.000000E+30   -1.000000E+30   -1.000000E+30   -1.000000E+30     133.459         133.480         133.498         133.514         133.529    
          133.543         133.557         133.570         133.583         133.596         133.610         133.624         133.639         133.655         133.672    
          133.692         133.713         133.737         133.764         133.793         133.824         133.856         133.889         133.923         133.958    
          133.995         134.036         134.067         134.094         134.072         134.092         134.132         134.169         134.113         134.155    
          134.237         134.342         134.451         134.562         134.673         134.782         134.890         134.991         135.087         135.176    
          135.256         135.326         135.388         135.441         135.487         135.527         135.561         135.589         135.610         135.626    
          135.636         135.640         135.637       -1.000000E+30   -1.000000E+30   -1.000000E+30   -1.000000E+30   -1.000000E+30   -1.000000E+30   -1.000000E+30
        -1.000000E+30   -1.000000E+30   -1.000000E+30   -1.000000E+30   -1.000000E+30   -1.000000E+30   -1.000000E+30   -1.000000E+30   -1.000000E+30   -1.000000E+30
        -1.000000E+30   -1.000000E+30   -1.000000E+30   -1.000000E+30   -1.000000E+30   -1.000000E+30   -1.000000E+30     133.458         133.479         133.497    
          133.514         133.529         133.544         133.558         133.572         133.586         133.600         133.614         133.629         133.645    
          133.662         133.680         133.700         133.722         133.746         133.772         133.801         133.831         133.862         133.896    
          133.930         133.966         134.004         134.043         134.084         134.111         134.125         134.111         134.122         134.176    
          134.217         134.142         134.194         134.289         134.402         134.516         134.626         134.731         134.834         134.929    
          135.019         135.101         135.176         135.244         135.303         135.354         135.398         135.437         135.469         135.496    
          135.517         135.534         135.544         135.549         135.551       -1.000000E+30   -1.000000E+30   -1.000000E+30   -1.000000E+30   -1.000000E+30
        -1.000000E+30   -1.000000E+30   -1.000000E+30   -1.000000E+30   -1.000000E+30   -1.000000E+30   -1.000000E+30   -1.000000E+30   -1.000000E+30   -1.000000E+30
        -1.000000E+30   -1.000000E+30   -1.000000E+30   -1.000000E+30   -1.000000E+30   -1.000000E+30   -1.000000E+30   -1.000000E+30   -1.000000E+30   -1.000000E+30
          133.458         133.479         133.497         133.514         133.529         133.544         133.559         133.573         133.588         133.603    
          133.618         133.634         133.650         133.668         133.687         133.707         133.730         133.754         133.779         133.807    
          133.837         133.868         133.901         133.936         133.972         134.009         134.048         134.085         134.118         134.132    
          134.155         134.135         134.138         134.215         134.262         134.172         134.232         134.345         134.468         134.581    
          134.686         134.784         134.876         134.960         135.038         135.108         135.172         135.229         135.277         135.320    
          135.357         135.389         135.415         135.437         135.454         135.466         135.473         135.476         135.486       -1.000000E+30
        -1.000000E+30   -1.000000E+30   -1.000000E+30   -1.000000E+30   -1.000000E+30   -1.000000E+30   -1.000000E+30   -1.000000E+30   -1.000000E+30   -1.000000E+30
        -1.000000E+30   -1.000000E+30   -1.000000E+30   -1.000000E+30   -1.000000E+30   -1.000000E+30   -1.000000E+30   -1.000000E+30   -1.000000E+30   -1.000000E+30
        -1.000000E+30   -1.000000E+30   -1.000000E+30     133.457         133.478         133.497         133.514         133.529         133.545         133.560    
          133.575         133.590         133.605         133.621         133.638         133.655         133.673         133.692         133.713         133.735    
          133.759         133.785         133.812         133.842         133.872         133.905         133.940         133.976         134.013         134.051    
          134.089         134.123         134.148         134.147         134.182         134.164         134.165         134.269         134.330         134.240    
          134.314         134.424         134.541         134.645         134.740         134.828         134.910         134.984         135.050         135.110    
          135.164         135.211         135.252         135.287         135.318         135.344         135.366         135.384         135.398         135.407    
          135.413         135.418       -1.000000E+30   -1.000000E+30   -1.000000E+30   -1.000000E+30   -1.000000E+30   -1.000000E+30   -1.000000E+30   -1.000000E+30
        -1.000000E+30   -1.000000E+30   -1.000000E+30   -1.000000E+30   -1.000000E+30   -1.000000E+30   -1.000000E+30   -1.000000E+30   -1.000000E+30   -1.000000E+30
        -1.000000E+30   -1.000000E+30   -1.000000E+30   -1.000000E+30   -1.000000E+30   -1.000000E+30     133.457         133.479         133.497         133.514    
          133.530         133.545         133.560         133.576         133.591         133.607         133.624         133.640         133.658         133.677    
          133.696         133.717         133.740         133.764         133.789         133.816         133.845         133.876         133.908         133.943    
          133.979         134.017         134.055         134.094         134.131         134.165         134.195         134.224         134.295         134.218    
          134.280         134.389         134.507         134.610         134.703         134.788         134.866         134.936         134.999         135.056    
          135.106         135.152         135.191         135.225         135.255         135.281         135.303         135.322         135.337         135.349    
          135.357         135.364         135.370       -1.000000E+30   -1.000000E+30   -1.000000E+30   -1.000000E+30   -1.000000E+30   -1.000000E+30   -1.000000E+30
        -1.000000E+30   -1.000000E+30   -1.000000E+30   -1.000000E+30   -1.000000E+30   -1.000000E+30   -1.000000E+30   -1.000000E+30   -1.000000E+30   -1.000000E+30
        -1.000000E+30   -1.000000E+30   -1.000000E+30   -1.000000E+30   -1.000000E+30   -1.000000E+30     133.458         133.479         133.497         133.514    
          133.530         133.545         133.561         133.576         133.592         133.609         133.625         133.643         133.661         133.680    
          133.700         133.721         133.743         133.767         133.792         133.819         133.848         133.879         133.911         133.945    
          133.981         134.019         134.058         134.098         134.139         134.178         134.215         134.225         134.247         134.239    
          134.241         134.360         134.482         134.583         134.673         134.754         134.829         134.896         134.956         135.009    
          135.056         135.099         135.138         135.171         135.200         135.226         135.249         135.269         135.285         135.299    
          135.309         135.318         135.327         135.334       -1.000000E+30   -1.000000E+30   -1.000000E+30   -1.000000E+30   -1.000000E+30   -1.000000E+30
        -1.000000E+30   -1.000000E+30   -1.000000E+30   -1.000000E+30   -1.000000E+30   -1.000000E+30   -1.000000E+30   -1.000000E+30   -1.000000E+30   -1.000000E+30
        -1.000000E+30   -1.000000E+30   -1.000000E+30   -1.000000E+30   -1.000000E+30   -1.000000E+30     133.458         133.480         133.498         133.514    
          133.529         133.545         133.561         133.577         133.593         133.609         133.626         133.644         133.662         133.682    
          133.702         133.723         133.745         133.769         133.795         133.822         133.850         133.881         133.913         133.947    
          133.983         134.021         134.061         134.102         134.146         134.191         134.236         134.263         134.283         134.281    
          134.306         134.319         134.381         134.346         134.394         134.469         134.564         134.650         134.727         134.798    
          134.862         134.919         134.970         135.015         135.055         135.092         135.125         135.154         135.180         135.203    
          135.224         135.242         135.257         135.269         135.279         135.287         135.295         135.303       -1.000000E+30   -1.000000E+30
        -1.000000E+30   -1.000000E+30   -1.000000E+30   -1.000000E+30   -1.000000E+30   -1.000000E+30   -1.000000E+30   -1.000000E+30   -1.000000E+30   -1.000000E+30
        -1.000000E+30   -1.000000E+30   -1.000000E+30   -1.000000E+30   -1.000000E+30   -1.000000E+30   -1.000000E+30   -1.000000E+30   -1.000000E+30     133.460    
          133.483         133.498         133.513         133.528         133.544         133.560         133.576         133.592         133.609         133.627    
          133.645         133.663         133.683         133.703         133.724         133.747         133.771         133.796         133.823         133.852    
          133.882         133.914         133.948         133.984         134.022         134.062         134.105         134.151         134.200         134.253    
          134.313         134.362         134.403         134.369         134.407         134.468         134.551         134.630         134.704         134.772    
          134.833         134.887         134.936         134.980         135.019         135.054         135.085         135.114         135.141         135.164    
          135.186         135.204         135.220         135.234         135.246         135.254         135.263         135.269         135.276         135.289    
        -1.000000E+30   -1.000000E+30   -1.000000E+30   -1.000000E+30   -1.000000E+30   -1.000000E+30   -1.000000E+30   -1.000000E+30   -1.000000E+30   -1.000000E+30
        -1.000000E+30   -1.000000E+30   -1.000000E+30   -1.000000E+30   -1.000000E+30   -1.000000E+30   -1.000000E+30   -1.000000E+30   -1.000000E+30     133.491    
          133.498         133.511         133.526         133.542         133.558         133.575         133.591         133.609         133.626         133.644    
          133.663         133.683         133.703         133.725         133.748         133.772         133.797         133.824         133.852         133.882    
          133.914         133.948         133.983         134.021         134.062         134.106         134.153         134.204         134.261         134.323    
          134.373         134.409         134.373         134.409         134.464         134.539         134.613         134.684         134.749         134.808    
          134.860         134.907         134.950         134.988         135.021         135.051         135.080         135.106         135.130         135.151    
          135.171         135.188         135.203         135.216         135.228         135.237         135.245         135.252         135.257         135.270    
        -1.000000E+30   -1.000000E+30   -1.000000E+30   -1.000000E+30   -1.000000E+30   -1.000000E+30   -1.000000E+30   -1.000000E+30   -1.000000E+30   -1.000000E+30
        -1.000000E+30   -1.000000E+30   -1.000000E+30   -1.000000E+30   -1.000000E+30   -1.000000E+30   -1.000000E+30   -1.000000E+30     133.489         133.506    
          133.522         133.538         133.555         133.572         133.589         133.607         133.625         133.643         133.663         133.682    
          133.703         133.725         133.748         133.772         133.797         133.824         133.852         133.882         133.914         133.947    
          133.982         134.020         134.061         134.105         134.152         134.204         134.262         134.310         134.337         134.308    
          134.337         134.372         134.406         134.370         134.404         134.457         134.528         134.597         134.664         134.728    
          134.785         134.836         134.882         134.923         134.960         134.992         135.006         134.980         134.994         135.022    
          135.034         135.009         135.023         135.049         135.075         135.099         135.120         135.141         135.159         135.176    
          135.190         135.204         135.216         135.226         135.234         135.241         135.246       -1.000000E+30   -1.000000E+30   -1.000000E+30
        -1.000000E+30   -1.000000E+30   -1.000000E+30   -1.000000E+30   -1.000000E+30   -1.000000E+30   -1.000000E+30   -1.000000E+30   -1.000000E+30   -1.000000E+30
        -1.000000E+30   -1.000000E+30   -1.000000E+30   -1.000000E+30   -1.000000E+30     133.498         133.516         133.534         133.551         133.569    
          133.587         133.605         133.623         133.642         133.661         133.681         133.702         133.724         133.747         133.771    
          133.797         133.823         133.851         133.881         133.912         133.945         133.980         134.018         134.058         134.102    
          134.149         134.201         134.258         134.305         134.335         134.304         134.330         134.367         134.400         134.365    
          134.394         134.436         134.465         134.429         134.463         134.516         134.582         134.646         134.708         134.764    
          134.814         134.859         134.900         134.934         134.949         134.923         134.938         134.966         134.982         134.955    
          134.970         134.996         135.010         134.984         134.998         135.024         135.034         135.011         135.024         135.048    
          135.072         135.093         135.113         135.132         135.150         135.166         135.181         135.195         135.207         135.217    
          135.226         135.233         135.239       -1.000000E+30   -1.000000E+30   -1.000000E+30   -1.000000E+30   -1.000000E+30   -1.000000E+30   -1.000000E+30
        -1.000000E+30   -1.000000E+30   -1.000000E+30   -1.000000E+30   -1.000000E+30   -1.000000E+30   -1.000000E+30   -1.000000E+30   -1.000000E+30   -1.000000E+30
          133.508         133.527         133.546         133.564         133.583         133.601         133.620         133.639         133.659         133.679    
          133.700         133.723         133.746         133.770         133.795         133.822         133.850         133.879         133.910         133.943    
          133.977         134.014         134.054         134.097         134.144         134.195         134.250         134.309         134.372         134.425    
          134.459         134.422         134.451         134.494         134.520         134.487         134.514         134.557         134.584         134.549    
          134.576         134.620         134.646         134.612         134.638         134.681         134.707         134.673         134.698         134.739    
          134.761         134.730         134.752         134.789         134.809         134.780         134.800         134.835         134.853         134.825    
          134.843         134.875         134.891         134.866         134.881         134.911         134.927         134.901         134.916         134.943    
          134.959         134.933         134.948         134.973         134.987         134.963         134.976         134.999         135.011         134.989    
          135.002         135.025         135.048         135.069         135.089         135.108         135.127         135.143         135.160         135.175    
          135.188         135.199         135.209         135.217       -1.000000E+30   -1.000000E+30   -1.000000E+30   -1.000000E+30   -1.000000E+30   -1.000000E+30
        -1.000000E+30   -1.000000E+30   -1.000000E+30   -1.000000E+30   -1.000000E+30   -1.000000E+30   -1.000000E+30   -1.000000E+30   -1.000000E+30   -1.000000E+30
        -1.000000E+30   -1.000000E+30     133.519         133.539         133.559         133.578         133.597         133.616         133.636         133.656    
          133.677         133.698         133.720         133.744         133.768         133.793         133.820         133.848         133.877         133.907    
          133.939         133.973         134.010         134.049         134.090         134.136         134.185         134.239         134.296         134.359    
          134.425         134.489         134.552         134.613         134.673         134.727         134.776         134.820         134.860         134.895    
          134.923         134.938         134.916         134.929         134.953         134.966         134.944         134.955         134.979         134.991    
          134.968         134.981         135.004         135.013         134.993         135.005         135.026         135.048         135.068         135.087    
          135.106         135.123         135.140         135.157         135.170         135.182         135.192       -1.000000E+30   -1.000000E+30   -1.000000E+30
        -1.000000E+30   -1.000000E+30   -1.000000E+30   -1.000000E+30   -1.000000E+30   -1.000000E+30   -1.000000E+30   -1.000000E+30   -1.000000E+30   -1.000000E+30
        -1.000000E+30   -1.000000E+30   -1.000000E+30   -1.000000E+30   -1.000000E+30   -1.000000E+30     133.530         133.551         133.571         133.591    
          133.611         133.631         133.652         133.673         133.695         133.717         133.741         133.765         133.791         133.817    
          133.845         133.874         133.904         133.935         133.968         134.004         134.041         134.082         134.126         134.174    
          134.226         134.282         134.344         134.409         134.473         134.536         134.597         134.657         134.712         134.760    
          134.804         134.843         134.878         134.909         134.936         134.959         134.972         134.951         134.963         134.984    
          134.994         134.976         134.986         135.007         135.028         135.048         135.067         135.086         135.103         135.119    
          135.137         135.152         135.164       -1.000000E+30   -1.000000E+30   -1.000000E+30   -1.000000E+30   -1.000000E+30   -1.000000E+30   -1.000000E+30
        -1.000000E+30   -1.000000E+30   -1.000000E+30   -1.000000E+30   -1.000000E+30   -1.000000E+30   -1.000000E+30   -1.000000E+30   -1.000000E+30   -1.000000E+30
        -1.000000E+30   -1.000000E+30   -1.000000E+30     133.542         133.563         133.584         133.605         133.626         133.647         133.668    
          133.690         133.713         133.737         133.762         133.787         133.814         133.841         133.870         133.899         133.930    
          133.963         133.997         134.033         134.072         134.115         134.161         134.212         134.267         134.328         134.391    
          134.455         134.519         134.580         134.641         134.696         134.746         134.790         134.829         134.863         134.894    
          134.918         134.929         134.911         134.922         134.942         134.954         134.934         134.947         134.968         134.989    
          135.010         135.030         135.048         135.067         135.084         135.100         135.117         135.132       -1.000000E+30   -1.000000E+30
        -1.000000E+30   -1.000000E+30   -1.000000E+30   -1.000000E+30   -1.000000E+30   -1.000000E+30   -1.000000E+30   -1.000000E+30   -1.000000E+30   -1.000000E+30
        -1.000000E+30   -1.000000E+30   -1.000000E+30   -1.000000E+30   -1.000000E+30   -1.000000E+30   -1.000000E+30   -1.000000E+30   -1.000000E+30     133.553    
          133.576         133.597         133.619         133.641         133.663         133.685         133.708         133.732         133.757         133.783    
          133.809         133.836         133.865         133.894         133.924         133.956         133.989         134.024         134.062         134.103    
          134.148         134.197         134.250         134.309         134.372         134.436         134.501         134.564         134.625         134.682    
          134.732         134.776         134.815         134.849         134.879         134.902         134.914         134.897         134.907         134.926    
          134.938         134.919         134.931         134.951         134.972         134.993         135.012         135.030         135.048         135.065    
          135.081         135.097         135.113       -1.000000E+30   -1.000000E+30   -1.000000E+30   -1.000000E+30   -1.000000E+30   -1.000000E+30   -1.000000E+30
        -1.000000E+30   -1.000000E+30   -1.000000E+30   -1.000000E+30   -1.000000E+30   -1.000000E+30   -1.000000E+30   -1.000000E+30   -1.000000E+30   -1.000000E+30
        -1.000000E+30   -1.000000E+30   -1.000000E+30   -1.000000E+30     133.564         133.588         133.611         133.634         133.656         133.679    
          133.703         133.727         133.752         133.777         133.804         133.831         133.859         133.888         133.917         133.948    
          133.980         134.015         134.052         134.091         134.134         134.181         134.232         134.290         134.352         134.416    
          134.481         134.546         134.609         134.668         134.719         134.764         134.802         134.836         134.865         134.891    
          134.911         134.923         134.906         134.917         134.937         134.957         134.977         134.996         135.014         135.030    
          135.048         135.064         135.078       -1.000000E+30   -1.000000E+30   -1.000000E+30   -1.000000E+30   -1.000000E+30   -1.000000E+30   -1.000000E+30
        -1.000000E+30   -1.000000E+30   -1.000000E+30   -1.000000E+30   -1.000000E+30   -1.000000E+30   -1.000000E+30   -1.000000E+30   -1.000000E+30   -1.000000E+30
        -1.000000E+30   -1.000000E+30   -1.000000E+30   -1.000000E+30   -1.000000E+30     133.576         133.601         133.625         133.648         133.672    
          133.696         133.720         133.745         133.771         133.797         133.824         133.852         133.880         133.909         133.940    
          133.971         134.004         134.040         134.078         134.120         134.165         134.214         134.269         134.330         134.395    
          134.461         134.528         134.592         134.653         134.707         134.753         134.791         134.823         134.852         134.877    
          134.898         134.909         134.891         134.903         134.922         134.943         134.962         134.980         134.998         135.014    
          135.031         135.047         135.061       -1.000000E+30   -1.000000E+30   -1.000000E+30   -1.000000E+30   -1.000000E+30   -1.000000E+30   -1.000000E+30
        -1.000000E+30   -1.000000E+30   -1.000000E+30   -1.000000E+30   -1.000000E+30   -1.000000E+30   -1.000000E+30   -1.000000E+30   -1.000000E+30   -1.000000E+30
        -1.000000E+30   -1.000000E+30   -1.000000E+30   -1.000000E+30   -1.000000E+30     133.587         133.613         133.638         133.663         133.688    
          133.713         133.738         133.764         133.790         133.817         133.844         133.872         133.901         133.931         133.961    
          133.994         134.028         134.065         134.105         134.148         134.196         134.248         134.309         134.373         134.440    
          134.509         134.576         134.639         134.695         134.741         134.778         134.810         134.838         134.863         134.883    
          134.894         134.877         134.888         134.907         134.928         134.948         134.967         134.984         135.000         135.017    
          135.032         135.045         135.060         135.074       -1.000000E+30   -1.000000E+30   -1.000000E+30   -1.000000E+30   -1.000000E+30   -1.000000E+30
        -1.000000E+30   -1.000000E+30   -1.000000E+30   -1.000000E+30   -1.000000E+30   -1.000000E+30   -1.000000E+30   -1.000000E+30   -1.000000E+30   -1.000000E+30
        -1.000000E+30   -1.000000E+30   -1.000000E+30   -1.000000E+30     133.599         133.626         133.652         133.678         133.703         133.729    
          133.755         133.781         133.808         133.836         133.863         133.892         133.921         133.951         133.983         134.016    
          134.052         134.090         134.132         134.178         134.228         134.286         134.351         134.419         134.490         134.560    
          134.625         134.682         134.728         134.766         134.797         134.824         134.848         134.869         134.879         134.862    
          134.873         134.892         134.913         134.934         134.954         134.972         134.989         135.005         135.020         135.033    
          135.047         135.057         135.074       -1.000000E+30   -1.000000E+30   -1.000000E+30   -1.000000E+30   -1.000000E+30   -1.000000E+30   -1.000000E+30
        -1.000000E+30   -1.000000E+30   -1.000000E+30   -1.000000E+30   -1.000000E+30   -1.000000E+30   -1.000000E+30   -1.000000E+30   -1.000000E+30   -1.000000E+30
        -1.000000E+30   -1.000000E+30   -1.000000E+30   -1.000000E+30   -1.000000E+30   -1.000000E+30   -1.000000E+30   -1.000000E+30   -1.000000E+30   -1.000000E+30
        -1.000000E+30   -1.000000E+30   -1.000000E+30   -1.000000E+30   -1.000000E+30   -1.000000E+30   -1.000000E+30   -1.000000E+30   -1.000000E+30   -1.000000E+30
        -1.000000E+30   -1.000000E+30   -1.000000E+30   -1.000000E+30   -1.000000E+30   -1.000000E+30   -1.000000E+30   -1.000000E+30   -1.000000E+30     133.610    
          133.639         133.666         133.692         133.719         133.745         133.772         133.799         133.826         133.854         133.882    
          133.911         133.941         133.971         134.004         134.038         134.076         134.116         134.161         134.209         134.265    
          134.328         134.395         134.467         134.542         134.609         134.670         134.716         134.752         134.783         134.810    
          134.834         134.854         134.864         134.847         134.858         134.877         134.898         134.920         134.941         134.961    
          134.979         134.996         135.011         135.025         135.038         135.049         135.058         135.070       -1.000000E+30   -1.000000E+30
        -1.000000E+30   -1.000000E+30   -1.000000E+30   -1.000000E+30   -1.000000E+30   -1.000000E+30   -1.000000E+30   -1.000000E+30   -1.000000E+30   -1.000000E+30
        -1.000000E+30   -1.000000E+30   -1.000000E+30   -1.000000E+30   -1.000000E+30   -1.000000E+30   -1.000000E+30   -1.000000E+30   -1.000000E+30   -1.000000E+30
        -1.000000E+30   -1.000000E+30   -1.000000E+30   -1.000000E+30   -1.000000E+30   -1.000000E+30   -1.000000E+30   -1.000000E+30   -1.000000E+30   -1.000000E+30
        -1.000000E+30   -1.000000E+30   -1.000000E+30   -1.000000E+30   -1.000000E+30   -1.000000E+30   -1.000000E+30   -1.000000E+30   -1.000000E+30   -1.000000E+30
        -1.000000E+30   -1.000000E+30   -1.000000E+30     133.622         133.651         133.679         133.706         133.734         133.761         133.788    
          133.816         133.844         133.872         133.901         133.930         133.960         133.992         134.025         134.061         134.101    
          134.144         134.190         134.246       -1.000000E+30   -1.000000E+30   -1.000000E+30   -1.000000E+30   -1.000000E+30   -1.000000E+30     134.704    
          134.737         134.768         134.796         134.818         134.827         134.810         134.821         134.839         134.849         134.832    
          134.842         134.862         134.884         134.907         134.928         134.949         134.969         134.986         135.003         135.018    
          135.032         135.043         135.053         135.063         135.068         135.060         135.065         135.076         135.081         135.073    
          135.077       -1.000000E+30   -1.000000E+30   -1.000000E+30   -1.000000E+30   -1.000000E+30   -1.000000E+30   -1.000000E+30   -1.000000E+30   -1.000000E+30
        -1.000000E+30   -1.000000E+30   -1.000000E+30   -1.000000E+30   -1.000000E+30   -1.000000E+30   -1.000000E+30   -1.000000E+30   -1.000000E+30   -1.000000E+30
        -1.000000E+30   -1.000000E+30   -1.000000E+30   -1.000000E+30   -1.000000E+30   -1.000000E+30   -1.000000E+30     133.633         133.663         133.692    
          133.720         133.748         133.776         133.804         133.833         133.861         133.890         133.919         133.949         133.981    
          134.014         134.048         134.085         134.125       -1.000000E+30   -1.000000E+30   -1.000000E+30   -1.000000E+30   -1.000000E+30   -1.000000E+30
        -1.000000E+30     134.619         134.685         134.720         134.751         134.779         134.802         134.813         134.795         134.807    
          134.827         134.849         134.872         134.895         134.918         134.939         134.960         134.978         134.994         135.010    
          135.025         135.038         135.048         135.053         135.046         135.051         135.058         135.062         135.056         135.059    
          135.069       -1.000000E+30   -1.000000E+30   -1.000000E+30   -1.000000E+30   -1.000000E+30   -1.000000E+30   -1.000000E+30   -1.000000E+30   -1.000000E+30
        -1.000000E+30   -1.000000E+30   -1.000000E+30   -1.000000E+30   -1.000000E+30   -1.000000E+30   -1.000000E+30   -1.000000E+30   -1.000000E+30   -1.000000E+30
        -1.000000E+30   -1.000000E+30   -1.000000E+30   -1.000000E+30   -1.000000E+30     133.644         133.675         133.704         133.734         133.763    
          133.792         133.821         133.850         133.879         133.909         133.939         133.971         134.004         134.039         134.075    
          134.117       -1.000000E+30   -1.000000E+30   -1.000000E+30   -1.000000E+30   -1.000000E+30   -1.000000E+30   -1.000000E+30   -1.000000E+30     134.664    
          134.706         134.737         134.765         134.788         134.800         134.782         134.792         134.812         134.821         134.805    
          134.816         134.837         134.861         134.886         134.910         134.932         134.953         134.972         134.989         135.005    
          135.020         135.033         135.043         135.049         135.041         135.047         135.055         135.063       -1.000000E+30   -1.000000E+30
        -1.000000E+30   -1.000000E+30   -1.000000E+30   -1.000000E+30   -1.000000E+30   -1.000000E+30   -1.000000E+30   -1.000000E+30   -1.000000E+30   -1.000000E+30
        -1.000000E+30   -1.000000E+30   -1.000000E+30   -1.000000E+30   -1.000000E+30     133.653         133.685         133.716         133.747         133.777    
          133.807         133.837         133.867         133.898         133.929         133.962         133.996         134.031         134.071       -1.000000E+30
        -1.000000E+30   -1.000000E+30   -1.000000E+30   -1.000000E+30   -1.000000E+30   -1.000000E+30   -1.000000E+30   -1.000000E+30   -1.000000E+30     134.676    
          134.722         134.749         134.776         134.798         134.810         134.792         134.805         134.826         134.851         134.876    
          134.902         134.925         134.947         134.966         134.984         135.000         135.016         135.028         135.033         135.026    
          135.032         135.039         135.045         135.038         135.043         135.051         135.060       -1.000000E+30   -1.000000E+30   -1.000000E+30
        -1.000000E+30   -1.000000E+30   -1.000000E+30   -1.000000E+30   -1.000000E+30   -1.000000E+30   -1.000000E+30   -1.000000E+30   -1.000000E+30   -1.000000E+30
        -1.000000E+30   -1.000000E+30   -1.000000E+30   -1.000000E+30     133.661         133.695         133.728         133.760         133.792         133.824    
          133.855         133.887         133.920         133.953         133.988         134.030       -1.000000E+30   -1.000000E+30   -1.000000E+30   -1.000000E+30
        -1.000000E+30   -1.000000E+30   -1.000000E+30   -1.000000E+30   -1.000000E+30   -1.000000E+30   -1.000000E+30   -1.000000E+30   -1.000000E+30     134.733    
          134.762         134.784         134.797         134.779         134.790         134.811         134.822         134.804         134.818         134.841    
          134.867         134.894         134.919         134.942         134.959         134.967         134.957         134.966         134.978         134.986    
          134.976         134.984         134.995         135.001         134.993         135.000         135.010         135.015         135.008         135.014    
          135.023         135.030         135.021         135.029         135.038         135.048       -1.000000E+30   -1.000000E+30   -1.000000E+30   -1.000000E+30
        -1.000000E+30   -1.000000E+30   -1.000000E+30   -1.000000E+30   -1.000000E+30   -1.000000E+30   -1.000000E+30   -1.000000E+30   -1.000000E+30   -1.000000E+30
        -1.000000E+30   -1.000000E+30   -1.000000E+30   -1.000000E+30     133.668         133.704         133.739         133.774         133.808         133.843    
          133.876         133.911         133.946         133.994       -1.000000E+30   -1.000000E+30   -1.000000E+30   -1.000000E+30   -1.000000E+30   -1.000000E+30
        -1.000000E+30   -1.000000E+30   -1.000000E+30   -1.000000E+30   -1.000000E+30   -1.000000E+30   -1.000000E+30   -1.000000E+30   -1.000000E+30     134.745    
          134.770         134.798         134.812         134.794         134.806         134.827         134.838         134.821         134.834         134.859    
          134.887         134.910         134.920         134.907         134.919         134.934         134.943         134.931         134.941         134.954    
          134.964         134.953         134.963         134.977         134.993       -1.000000E+30   -1.000000E+30   -1.000000E+30   -1.000000E+30   -1.000000E+30
        -1.000000E+30   -1.000000E+30   -1.000000E+30   -1.000000E+30   -1.000000E+30   -1.000000E+30   -1.000000E+30   -1.000000E+30   -1.000000E+30   -1.000000E+30
        -1.000000E+30   -1.000000E+30   -1.000000E+30   -1.000000E+30   -1.000000E+30     133.672         133.712         133.751         133.790         133.828    
          133.866         133.903         133.956       -1.000000E+30   -1.000000E+30   -1.000000E+30   -1.000000E+30   -1.000000E+30   -1.000000E+30   -1.000000E+30
        -1.000000E+30   -1.000000E+30   -1.000000E+30   -1.000000E+30   -1.000000E+30   -1.000000E+30   -1.000000E+30   -1.000000E+30   -1.000000E+30   -1.000000E+30
          134.749         134.780         134.809         134.823         134.803         134.815       -1.000000E+30     134.854       -1.000000E+30     134.849    
          134.876         134.884         134.870         134.880         134.901         134.914         134.898         134.911       -1.000000E+30   -1.000000E+30
        -1.000000E+30   -1.000000E+30   -1.000000E+30   -1.000000E+30   -1.000000E+30   -1.000000E+30   -1.000000E+30   -1.000000E+30   -1.000000E+30   -1.000000E+30
        -1.000000E+30   -1.000000E+30   -1.000000E+30   -1.000000E+30   -1.000000E+30   -1.000000E+30   -1.000000E+30   -1.000000E+30   -1.000000E+30   -1.000000E+30
          133.672         133.719         133.766         133.812         133.856         133.911       -1.000000E+30   -1.000000E+30   -1.000000E+30   -1.000000E+30
        -1.000000E+30   -1.000000E+30   -1.000000E+30   -1.000000E+30   -1.000000E+30   -1.000000E+30   -1.000000E+30   -1.000000E+30   -1.000000E+30   -1.000000E+30
        -1.000000E+30   -1.000000E+30   -1.000000E+30   -1.000000E+30   -1.000000E+30   -1.000000E+30   -1.000000E+30   -1.000000E+30   -1.000000E+30   -1.000000E+30
        -1.000000E+30   -1.000000E+30   -1.000000E+30   -1.000000E+30   -1.000000E+30   -1.000000E+30   -1.000000E+30   -1.000000E+30   -1.000000E+30   -1.000000E+30
        -1.000000E+30   -1.000000E+30   -1.000000E+30   -1.000000E+30   -1.000000E+30   -1.000000E+30   -1.000000E+30   -1.000000E+30   -1.000000E+30   -1.000000E+30
          133.667         133.729         133.791         133.859       -1.000000E+30   -1.000000E+30   -1.000000E+30   -1.000000E+30   -1.000000E+30   -1.000000E+30
        -1.000000E+30   -1.000000E+30   -1.000000E+30   -1.000000E+30   -1.000000E+30   -1.000000E+30   -1.000000E+30   -1.000000E+30   -1.000000E+30   -1.000000E+30
        -1.000000E+30   -1.000000E+30   -1.000000E+30   -1.000000E+30   -1.000000E+30   -1.000000E+30   -1.000000E+30   -1.000000E+30   -1.000000E+30   -1.000000E+30
        -1.000000E+30   -1.000000E+30   -1.000000E+30   -1.000000E+30   -1.000000E+30   -1.000000E+30   -1.000000E+30   -1.000000E+30   -1.000000E+30   -1.000000E+30
        -1.000000E+30   -1.000000E+30   -1.000000E+30   -1.000000E+30   -1.000000E+30   -1.000000E+30   -1.000000E+30     133.652         133.768         133.877    
        -1.000000E+30   -1.000000E+30   -1.000000E+30   -1.000000E+30   -1.000000E+30   -1.000000E+30   -1.000000E+30   -1.000000E+30   -1.000000E+30   -1.000000E+30
        -1.000000E+30   -1.000000E+30   -1.000000E+30   -1.000000E+30   -1.000000E+30   -1.000000E+30   -1.000000E+30   -1.000000E+30   -1.000000E+30   -1.000000E+30
        -1.000000E+30   -1.000000E+30   -1.000000E+30   -1.000000E+30   -1.000000E+30   -1.000000E+30   -1.000000E+30   -1.000000E+30   -1.000000E+30   -1.000000E+30
        -1.000000E+30   -1.000000E+30   -1.000000E+30   -1.000000E+30   -1.000000E+30   -1.000000E+30   -1.000000E+30   -1.000000E+30   -1.000000E+30   -1.000000E+30
          133.692       -1.000000E+30   -1.000000E+30   -1.000000E+30   -1.000000E+30   -1.000000E+30   -1.000000E+30   -1.000000E+30   -1.000000E+30   -1.000000E+30
        -1.000000E+30   -1.000000E+30   -1.000000E+30   -1.000000E+30   -1.000000E+30   -1.000000E+30   -1.000000E+30   -1.000000E+30   -1.000000E+30   -1.000000E+30
        -1.000000E+30   -1.000000E+30   -1.000000E+30   -1.000000E+30   -1.000000E+30   -1.000000E+30   -1.000000E+30   -1.000000E+30   -1.000000E+30   -1.000000E+30
        -1.000000E+30   -1.000000E+30   -1.000000E+30   -1.000000E+30   -1.000000E+30   -1.000000E+30   -1.000000E+30   -1.000000E+30   -1.000000E+30   -1.000000E+30
        -1.000000E+30   -1.000000E+30   -1.000000E+30   -1.000000E+30   -1.000000E+30   -1.000000E+30   -1.000000E+30   -1.000000E+30   -1.000000E+30   -1.000000E+30
        -1.000000E+30   -1.000000E+30   -1.000000E+30   -1.000000E+30   -1.000000E+30   -1.000000E+30   -1.000000E+30   -1.000000E+30   -1.000000E+30   -1.000000E+30
        -1.000000E+30   -1.000000E+30   -1.000000E+30   -1.000000E+30   -1.000000E+30   -1.000000E+30   -1.000000E+30   -1.000000E+30   -1.000000E+30   -1.000000E+30
        -1.000000E+30   -1.000000E+30   -1.000000E+30   -1.000000E+30   -1.000000E+30
1
  HEAD IN LAYER   2 AT END OF TIME STEP   1 IN STRESS PERIOD    2
  ---------------------------------------------------------------------------

                1               2               3               4               5               6               7               8               9              10
               11              12              13              14              15              16              17              18              19              20
               21              22              23              24              25              26              27              28              29              30
               31              32              33              34              35              36              37              38              39              40
               41              42              43              44              45              46              47              48              49              50
               51              52              53              54              55              56              57              58              59              60
               61              62              63              64              65              66              67              68              69              70
               71              72              73              74              75              76              77              78              79              80
               81              82              83              84              85              86              87              88              89              90
               91              92              93              94              95              96              97              98              99             100
              101             102             103             104             105             106             107             108             109             110
              111             112             113             114             115             116             117             118             119             120
              121             122             123             124             125             126             127             128             129             130
              131             132             133             134             135             136             137             138             139             140
              141             142             143             144             145             146             147             148             149             150
              151             152             153             154             155             156             157             158             159             160
              161             162             163             164             165             166             167             168             169             170
              171             172             173             174             175             176             177             178             179             180
              181             182             183             184             185             186             187             188             189             190
              191             192             193             194             195             196             197             198             199             200
              201             202             203             204             205             206             207             208             209             210
              211             212             213             214             215             216             217             218             219             220
              221             222             223             224             225             226             227             228             229             230
              231             232             233             234             235             236             237             238             239             240
              241             242             243             244             245             246             247             248             249             250
              251             252             253             254             255             256             257             258             259             260
              261             262             263             264             265             266             267             268             269             270
              271             272             273             274             275             276             277             278             279             280
              281             282             283             284             285             286             287             288             289             290
              291             292             293             294             295             296             297             298             299             300
              301             302             303             304             305             306             307             308             309             310
              311             312             313             314             315             316             317             318             319             320
              321             322             323             324             325             326             327             328             329             330
              331             332             333             334             335             336             337             338             339             340
              341             342             343             344             345             346             347             348             349             350
              351             352             353             354             355             356             357             358             359             360
              361             362             363             364             365             366             367             368             369             370
              371             372             373             374             375             376             377             378             379             380
              381             382             383             384             385             386             387             388             389             390
              391             392             393             394             395             396             397             398             399             400
              401             402             403             404             405             406             407             408             409             410
              411             412             413             414             415             416             417             418             419             420
              421             422             423             424             425             426             427             428             429             430
              431             432             433             434             435             436             437             438             439             440
              441             442             443             444             445             446             447             448             449             450
              451             452             453             454             455             456             457             458             459             460
              461             462             463             464             465             466             467             468             469             470
              471             472             473             474             475             476             477             478             479             480
              481             482             483             484             485             486             487             488             489             490
              491             492             493             494             495             496             497             498             499             500
              501             502             503             504             505             506             507             508             509             510
              511             512             513             514             515             516             517             518             519             520
              521             522             523             524             525             526             527             528             529             530
              531             532             533             534             535             536             537             538             539             540
              541             542             543             544             545             546             547             548             549             550
              551             552             553             554             555             556             557             558             559             560
              561             562             563             564             565             566             567             568             569             570
              571             572             573             574             575             576             577             578             579             580
              581             582             583             584             585             586             587             588             589             590
              591             592             593             594             595             596             597             598             599             600
              601             602             603             604             605             606             607             608             609             610
              611             612             613             614             615             616             617             618             619             620
              621             622             623             624             625             626             627             628             629             630
              631             632             633             634             635             636             637             638             639             640
              641             642             643             644             645             646             647             648             649             650
              651             652             653             654             655             656             657             658             659             660
              661             662             663             664             665             666             667             668             669             670
              671             672             673             674             675             676             677             678             679             680
              681             682             683             684             685             686             687             688             689             690
              691             692             693             694             695             696             697             698             699             700
              701             702             703             704             705             706             707             708             709             710
              711             712             713             714             715             716             717             718             719             720
              721             722             723             724             725             726             727             728             729             730
              731             732             733             734             735             736             737             738             739             740
              741             742             743             744             745             746             747             748             749             750
              751             752             753             754             755             756             757             758             759             760
              761             762             763             764             765             766             767             768             769             770
              771             772             773             774             775             776             777             778             779             780
              781             782             783             784             785             786             787             788             789             790
              791             792             793             794             795             796             797             798             799             800
              801             802             803             804             805             806             807             808             809             810
              811             812             813             814             815             816             817             818             819             820
              821             822             823             824             825             826             827             828             829             830
              831             832             833             834             835             836             837             838             839             840
              841             842             843             844             845             846             847             848             849             850
              851             852             853             854             855             856             857             858             859             860
              861             862             863             864             865             866             867             868             869             870
              871             872             873             874             875             876             877             878             879             880
              881             882             883             884             885             886             887             888             889             890
              891             892             893             894             895             896             897             898             899             900
              901             902             903             904             905             906             907             908             909             910
              911             912             913             914             915             916             917             918             919             920
              921             922             923             924             925             926             927             928             929             930
              931             932             933             934             935             936             937             938             939             940
              941             942             943             944             945             946             947             948             949             950
              951             952             953             954             955             956             957             958             959             960
              961             962             963             964             965             966             967             968             969             970
              971             972             973             974             975             976             977             978             979             980
              981             982             983             984             985             986             987             988             989             990
              991             992             993             994             995             996             997             998             999            1000
             1001            1002            1003            1004            1005            1006            1007            1008            1009            1010
             1011            1012            1013            1014            1015            1016            1017            1018            1019            1020
             1021            1022            1023            1024            1025            1026            1027            1028            1029            1030
             1031            1032            1033            1034            1035            1036            1037            1038            1039            1040
             1041            1042            1043            1044            1045            1046            1047            1048            1049            1050
             1051            1052            1053            1054            1055            1056            1057            1058            1059            1060
             1061            1062            1063            1064            1065            1066            1067            1068            1069            1070
             1071            1072            1073            1074            1075            1076            1077            1078            1079            1080
             1081            1082            1083            1084            1085            1086            1087            1088            1089            1090
             1091            1092            1093            1094            1095            1096            1097            1098            1099            1100
             1101            1102            1103            1104            1105            1106            1107            1108            1109            1110
             1111            1112            1113            1114            1115            1116            1117            1118            1119            1120
             1121            1122            1123            1124            1125            1126            1127            1128            1129            1130
             1131            1132            1133            1134            1135            1136            1137            1138            1139            1140
             1141            1142            1143            1144            1145            1146            1147            1148            1149            1150
             1151            1152            1153            1154            1155            1156            1157            1158            1159            1160
             1161            1162            1163            1164            1165            1166            1167            1168            1169            1170
             1171            1172            1173            1174            1175            1176            1177            1178            1179            1180
             1181            1182            1183            1184            1185            1186            1187            1188            1189            1190
             1191            1192            1193            1194            1195            1196            1197            1198            1199            1200
             1201            1202            1203            1204            1205            1206            1207            1208            1209            1210
             1211            1212            1213            1214            1215            1216            1217            1218            1219            1220
             1221            1222            1223            1224            1225            1226            1227            1228            1229            1230
             1231            1232            1233            1234            1235            1236            1237            1238            1239            1240
             1241            1242            1243            1244            1245            1246            1247            1248            1249            1250
             1251            1252            1253            1254            1255            1256            1257            1258            1259            1260
             1261            1262            1263            1264            1265            1266            1267            1268            1269            1270
             1271            1272            1273            1274            1275            1276            1277            1278            1279            1280
             1281            1282            1283            1284            1285            1286            1287            1288            1289            1290
             1291            1292            1293            1294            1295            1296            1297            1298            1299            1300
             1301            1302            1303            1304            1305            1306            1307            1308            1309            1310
             1311            1312            1313            1314            1315            1316            1317            1318            1319            1320
             1321            1322            1323            1324            1325            1326            1327            1328            1329            1330
             1331            1332            1333            1334            1335            1336            1337            1338            1339            1340
             1341            1342            1343            1344            1345            1346            1347            1348            1349            1350
             1351            1352            1353            1354            1355            1356            1357            1358            1359            1360
             1361            1362            1363            1364            1365            1366            1367            1368            1369            1370
             1371            1372            1373            1374            1375            1376            1377            1378            1379            1380
             1381            1382            1383            1384            1385            1386            1387            1388            1389            1390
             1391            1392            1393            1394            1395            1396            1397            1398            1399            1400
             1401            1402            1403            1404            1405            1406            1407            1408            1409            1410
             1411            1412            1413            1414            1415            1416            1417            1418            1419            1420
             1421            1422            1423            1424            1425            1426            1427            1428            1429            1430
             1431            1432            1433            1434            1435            1436            1437            1438            1439            1440
             1441            1442            1443            1444            1445            1446            1447            1448            1449            1450
             1451            1452            1453            1454            1455            1456            1457            1458            1459            1460
             1461            1462            1463            1464            1465            1466            1467            1468            1469            1470
             1471            1472            1473            1474            1475            1476            1477            1478            1479            1480
             1481            1482            1483            1484            1485            1486            1487            1488            1489            1490
             1491            1492            1493            1494            1495            1496            1497            1498            1499            1500
             1501            1502            1503            1504            1505            1506            1507            1508            1509            1510
             1511            1512            1513            1514            1515            1516            1517            1518            1519            1520
             1521            1522            1523            1524            1525            1526            1527            1528            1529            1530
             1531            1532            1533            1534            1535            1536            1537            1538            1539            1540
             1541            1542            1543            1544            1545            1546            1547            1548            1549            1550
             1551            1552            1553            1554            1555            1556            1557            1558            1559            1560
             1561            1562            1563            1564            1565            1566            1567            1568            1569            1570
             1571            1572            1573            1574            1575            1576            1577            1578            1579            1580
             1581            1582            1583            1584            1585            1586            1587            1588            1589            1590
             1591            1592            1593            1594            1595            1596            1597            1598            1599            1600
             1601            1602            1603            1604            1605            1606            1607            1608            1609            1610
             1611            1612            1613            1614            1615            1616            1617            1618            1619            1620
             1621            1622            1623            1624            1625            1626            1627            1628            1629            1630
             1631            1632            1633            1634            1635            1636            1637            1638            1639            1640
             1641            1642            1643            1644            1645            1646            1647            1648            1649            1650
             1651            1652            1653            1654            1655            1656            1657            1658            1659            1660
             1661            1662            1663            1664            1665            1666            1667            1668            1669            1670
             1671            1672            1673            1674            1675            1676            1677            1678            1679            1680
             1681            1682            1683            1684            1685            1686            1687            1688            1689            1690
             1691            1692            1693            1694            1695            1696            1697            1698            1699            1700
             1701            1702            1703            1704            1705            1706            1707            1708            1709            1710
             1711            1712            1713            1714            1715            1716            1717            1718            1719            1720
             1721            1722            1723            1724            1725            1726            1727            1728            1729            1730
             1731            1732            1733            1734            1735            1736            1737            1738            1739            1740
             1741            1742            1743            1744            1745            1746            1747            1748            1749            1750
             1751            1752            1753            1754            1755            1756            1757            1758            1759            1760
             1761            1762            1763            1764            1765            1766            1767            1768            1769            1770
             1771            1772            1773            1774            1775            1776            1777            1778            1779            1780
             1781            1782            1783            1784            1785            1786            1787            1788            1789            1790
             1791            1792            1793            1794            1795            1796            1797            1798            1799            1800
             1801            1802            1803            1804            1805            1806            1807            1808            1809            1810
             1811            1812            1813            1814            1815            1816            1817            1818            1819            1820
             1821            1822            1823            1824            1825            1826            1827            1828            1829            1830
             1831            1832            1833            1834            1835            1836            1837            1838            1839            1840
             1841            1842            1843            1844            1845            1846            1847            1848            1849            1850
             1851            1852            1853            1854            1855            1856            1857            1858            1859            1860
             1861            1862            1863            1864            1865            1866            1867            1868            1869            1870
             1871            1872            1873            1874            1875            1876            1877            1878            1879            1880
             1881            1882            1883            1884            1885            1886            1887            1888            1889            1890
             1891            1892            1893            1894            1895            1896            1897            1898            1899            1900
             1901            1902            1903            1904            1905            1906            1907            1908            1909            1910
             1911            1912            1913            1914            1915            1916            1917            1918            1919            1920
             1921            1922            1923            1924            1925            1926            1927            1928            1929            1930
             1931            1932            1933            1934            1935            1936            1937            1938            1939            1940
             1941            1942            1943            1944            1945            1946            1947            1948            1949            1950
             1951            1952            1953            1954            1955            1956            1957            1958            1959            1960
             1961            1962            1963            1964            1965            1966            1967            1968            1969            1970
             1971            1972            1973            1974            1975            1976            1977            1978            1979            1980
             1981            1982            1983            1984            1985            1986            1987            1988            1989            1990
             1991            1992            1993            1994            1995            1996            1997            1998            1999            2000
             2001            2002            2003            2004            2005            2006            2007            2008            2009            2010
             2011            2012            2013            2014            2015            2016            2017            2018            2019            2020
             2021            2022            2023            2024            2025            2026            2027            2028            2029            2030
             2031            2032            2033            2034            2035            2036            2037            2038            2039            2040
             2041            2042            2043            2044            2045            2046            2047            2048            2049            2050
             2051            2052            2053            2054            2055            2056            2057            2058            2059            2060
             2061            2062            2063            2064            2065            2066            2067            2068            2069            2070
             2071            2072            2073            2074            2075            2076            2077            2078            2079            2080
             2081            2082            2083            2084            2085            2086            2087            2088            2089            2090
             2091            2092            2093            2094            2095            2096            2097            2098            2099            2100
             2101            2102            2103            2104            2105            2106            2107            2108            2109            2110
             2111            2112            2113            2114            2115            2116            2117            2118            2119            2120
             2121            2122            2123            2124            2125            2126            2127            2128            2129            2130
             2131            2132            2133            2134            2135            2136            2137            2138            2139            2140
             2141            2142            2143            2144            2145            2146            2147            2148            2149            2150
             2151            2152            2153            2154            2155            2156            2157            2158            2159            2160
             2161            2162            2163            2164            2165            2166            2167            2168            2169            2170
             2171            2172            2173            2174            2175            2176            2177            2178            2179            2180
             2181            2182            2183            2184            2185            2186            2187            2188            2189            2190
             2191            2192            2193            2194            2195            2196            2197            2198            2199            2200
             2201            2202            2203            2204            2205            2206            2207            2208            2209            2210
             2211            2212            2213            2214            2215            2216            2217            2218            2219            2220
             2221            2222            2223            2224            2225            2226            2227            2228            2229            2230
             2231            2232            2233            2234            2235            2236            2237            2238            2239            2240
             2241            2242            2243            2244            2245            2246            2247            2248            2249            2250
             2251            2252            2253            2254            2255            2256            2257            2258            2259            2260
             2261            2262            2263            2264            2265            2266            2267            2268            2269            2270
             2271            2272            2273            2274            2275            2276            2277            2278            2279            2280
             2281            2282            2283            2284            2285            2286            2287            2288            2289            2290
             2291            2292            2293            2294            2295            2296            2297            2298            2299            2300
             2301            2302            2303            2304            2305            2306            2307            2308            2309            2310
             2311            2312            2313            2314            2315            2316            2317            2318            2319            2320
             2321            2322            2323            2324            2325            2326            2327            2328            2329            2330
             2331            2332            2333            2334            2335            2336            2337            2338            2339            2340
             2341            2342            2343            2344            2345            2346            2347            2348            2349            2350
             2351            2352            2353            2354            2355            2356            2357            2358            2359            2360
             2361            2362            2363            2364            2365            2366            2367            2368            2369            2370
             2371            2372            2373            2374            2375            2376            2377            2378            2379            2380
             2381            2382            2383            2384            2385            2386            2387            2388            2389            2390
             2391            2392            2393            2394            2395            2396            2397            2398            2399            2400
             2401            2402            2403            2404            2405            2406            2407            2408            2409            2410
             2411            2412            2413            2414            2415            2416            2417            2418            2419            2420
             2421            2422            2423            2424            2425            2426            2427            2428            2429            2430
             2431            2432            2433            2434            2435            2436            2437            2438            2439            2440
             2441            2442            2443            2444            2445            2446            2447            2448            2449            2450
             2451            2452            2453            2454            2455            2456            2457            2458            2459            2460
             2461            2462            2463            2464            2465            2466            2467            2468            2469            2470
             2471            2472            2473            2474            2475            2476            2477            2478            2479            2480
             2481            2482            2483            2484            2485            2486            2487            2488            2489            2490
             2491            2492            2493            2494            2495            2496            2497            2498            2499            2500
             2501            2502            2503            2504            2505            2506            2507            2508            2509            2510
             2511            2512            2513            2514            2515            2516            2517            2518            2519            2520
             2521            2522            2523            2524            2525            2526            2527            2528            2529            2530
             2531            2532            2533            2534            2535            2536            2537            2538            2539            2540
             2541            2542            2543            2544            2545            2546            2547            2548            2549            2550
             2551            2552            2553            2554            2555            2556            2557            2558            2559            2560
             2561            2562            2563            2564            2565            2566            2567            2568            2569            2570
             2571            2572            2573            2574            2575            2576            2577            2578            2579            2580
             2581            2582            2583            2584            2585            2586            2587            2588            2589            2590
             2591            2592            2593            2594            2595            2596            2597            2598            2599            2600
             2601            2602            2603            2604            2605            2606            2607            2608            2609            2610
             2611            2612            2613            2614            2615            2616            2617            2618            2619            2620
             2621            2622            2623            2624            2625            2626            2627            2628            2629            2630
             2631            2632            2633            2634            2635            2636            2637            2638            2639            2640
             2641            2642            2643            2644            2645            2646            2647            2648            2649            2650
             2651            2652            2653            2654            2655            2656            2657            2658            2659            2660
             2661            2662            2663            2664            2665            2666            2667            2668            2669            2670
             2671            2672            2673            2674            2675            2676            2677            2678            2679            2680
             2681            2682            2683            2684            2685            2686            2687            2688            2689            2690
             2691            2692            2693            2694            2695            2696            2697            2698            2699            2700
             2701            2702            2703            2704            2705            2706            2707            2708            2709            2710
             2711            2712            2713            2714            2715            2716            2717            2718            2719            2720
             2721            2722            2723            2724            2725            2726            2727            2728            2729            2730
             2731            2732            2733            2734            2735            2736            2737            2738            2739            2740
             2741            2742            2743            2744            2745            2746            2747            2748            2749            2750
             2751            2752            2753            2754            2755            2756            2757            2758            2759            2760
             2761            2762            2763            2764            2765            2766            2767            2768            2769            2770
             2771            2772            2773            2774            2775            2776            2777            2778            2779            2780
             2781            2782            2783            2784            2785            2786            2787            2788            2789            2790
             2791            2792            2793            2794            2795            2796            2797            2798            2799            2800
             2801            2802            2803            2804            2805            2806            2807            2808            2809            2810
             2811            2812            2813            2814            2815            2816            2817            2818            2819            2820
             2821            2822            2823            2824            2825            2826            2827            2828            2829            2830
             2831            2832            2833            2834            2835            2836            2837            2838            2839            2840
             2841            2842            2843            2844            2845            2846            2847            2848            2849            2850
             2851            2852            2853            2854            2855            2856            2857            2858            2859            2860
             2861            2862            2863            2864            2865            2866            2867            2868            2869            2870
             2871            2872            2873            2874            2875            2876            2877            2878            2879            2880
             2881            2882            2883            2884            2885            2886            2887            2888            2889            2890
             2891            2892            2893            2894            2895            2896            2897            2898            2899            2900
             2901            2902            2903            2904            2905            2906            2907            2908            2909            2910
             2911            2912            2913            2914            2915            2916            2917            2918            2919            2920
             2921            2922            2923            2924            2925            2926            2927            2928            2929            2930
             2931            2932            2933            2934            2935            2936            2937            2938            2939            2940
             2941            2942            2943            2944            2945            2946            2947            2948            2949            2950
             2951            2952            2953            2954            2955            2956            2957            2958            2959            2960
             2961            2962            2963            2964            2965            2966            2967            2968            2969            2970
             2971            2972            2973            2974            2975            2976            2977            2978            2979            2980
             2981            2982            2983            2984            2985            2986            2987            2988            2989            2990
             2991            2992            2993            2994            2995            2996            2997            2998            2999            3000
             3001            3002            3003            3004            3005            3006            3007            3008            3009            3010
             3011            3012            3013            3014            3015            3016            3017            3018            3019            3020
             3021            3022            3023            3024            3025            3026            3027            3028            3029            3030
             3031            3032            3033            3034            3035            3036            3037            3038            3039            3040
             3041            3042            3043            3044            3045            3046            3047            3048            3049            3050
             3051            3052            3053            3054            3055            3056            3057            3058            3059            3060
             3061            3062            3063            3064            3065            3066            3067            3068            3069            3070
             3071            3072            3073            3074            3075            3076            3077            3078            3079            3080
             3081            3082            3083            3084            3085            3086            3087            3088            3089            3090
             3091            3092            3093            3094            3095            3096            3097            3098            3099            3100
             3101            3102            3103            3104            3105            3106            3107            3108            3109            3110
             3111            3112            3113            3114            3115            3116            3117            3118            3119            3120
             3121            3122            3123            3124            3125            3126            3127            3128            3129            3130
             3131            3132            3133            3134            3135
 ................................................................................................................................................................
   1      133.639         133.630         133.608         133.575         133.555         133.547         133.547         133.538         133.547         133.585    
          133.640         133.701         133.765         133.829         133.893         133.956         134.016         134.073         134.128         134.183    
          134.234         134.279         134.311         133.610         133.617         133.611         133.592         133.562         133.539         133.527    
          133.535         133.524         133.523         133.529         133.517         133.520         133.550         133.602         133.662         133.727    
          133.793         133.860         133.926         133.990         134.051         134.110         134.168         134.224         134.278         134.328    
          134.377         133.590         133.597         133.600         133.594         133.578         133.555         133.530         133.517         133.516    
          133.518         133.516         133.524         133.535         133.518         133.525         133.559         133.578         133.542         133.564    
          133.613         133.677         133.746         133.816         133.887         133.956         134.022         134.086         134.148         134.209    
          134.270         134.330         134.388         134.435         133.577         133.582         133.587         133.587         133.582         133.571    
          133.554         133.536         133.523         133.518         133.530         133.546         133.524         133.534         133.569         133.589    
          133.551         133.575         133.627         133.696         133.771         133.846         133.921         133.992         134.060         134.126    
          134.191         134.257         134.322         134.387         134.446         134.493         133.565         133.570         133.575         133.578    
          133.579         133.576         133.568         133.557         133.545         133.534         133.527         133.527         133.540         133.558    
          133.536         133.547         133.584         133.606         133.567         133.594         133.650         133.727         133.809         133.888    
          133.962         134.033         134.102         134.171         134.240         134.309         134.379         134.447         134.508         134.559    
          133.552         133.558         133.564         133.569         133.573         133.574         133.573         133.569         133.563         133.555    
          133.548         133.543         133.540         133.544         133.559         133.579         133.558         133.572         133.609         133.637    
          133.596         133.628         133.692         133.779         133.861         133.937         134.008         134.077         134.147         134.219    
          134.293         134.368         134.443         134.515         134.582         134.641         133.538         133.545         133.552         133.559    
          133.564         133.569         133.572         133.573         133.572         133.570         133.567         133.564         133.561         133.561    
          133.564         133.575         133.594         133.620         133.601         133.620         133.659         133.695         133.655         133.695    
          133.763         133.844         133.916         133.984         134.051         134.122         134.196         134.273         134.353         134.434    
          134.516         134.597         134.675         134.746         133.521         133.530         133.539         133.547         133.554         133.561    
          133.567         133.571         133.575         133.577         133.578         133.579         133.580         133.582         133.586         133.593    
          133.606         133.633         133.664         133.702         133.680         133.712         133.748         133.782         133.754         133.789    
          133.839         133.901         133.961         134.024         134.093         134.168         134.249         134.334         134.422         134.512    
          134.604         134.699         134.796         134.893         133.504         133.513         133.523         133.533         133.542         133.551    
          133.559         133.566         133.572         133.577         133.582         133.587         133.591         133.596         133.602         133.610    
          133.623         133.641         133.671         133.719         133.763         133.795         133.770         133.796         133.827         133.850    
          133.827         133.848         133.880         133.902         133.876         133.896         133.932         133.955         133.922         133.948    
          133.996         134.061         134.137         134.222         134.312         134.405         134.502         134.603         134.711         134.830    
          134.966         135.144         135.293         135.417         135.522         135.614         135.694         135.764         135.827         135.885    
          135.938         135.986         136.030         136.069         136.103         136.131         136.149         136.154         136.139         136.097    
          136.013         135.859         135.758         135.686         135.632         135.590         135.557         135.530         135.506         135.486    
          135.469         135.454         135.441         135.429         135.418         135.409         135.402         133.501         133.508         133.518    
          133.529         133.539         133.548         133.557         133.566         133.574         133.581         133.588         133.595         133.603    
          133.611         133.621         133.633         133.649         133.671         133.701         133.742         133.790         133.837         133.881    
          133.916         133.939         133.914         133.932         133.966         133.987         133.956         133.976         134.021         134.048    
          134.005         134.037         134.103         134.192         134.286         134.383         134.484         134.591         134.706         134.831    
          134.967         135.114         135.251         135.369         135.472         135.561         135.640         135.710         135.773         135.828    
          135.879         135.924         135.965         135.999         136.028         136.048         136.058         136.053         136.027         135.972    
          135.901         135.810         135.732         135.670         135.621         135.582         135.551         135.524         135.502         135.482    
          135.466         135.451         135.438         135.427         135.416         135.405         135.397         135.390         133.498         133.505    
          133.515         133.525         133.536         133.547         133.557         133.567         133.576         133.585         133.594         133.604    
          133.614         133.625         133.637         133.653         133.671         133.695         133.724         133.760         133.800         133.840    
          133.880         133.919         133.959         133.996         134.025         133.993         134.020         134.075         134.163         134.259    
          134.357         134.460         134.569         134.685         134.809         134.937         135.067         135.192         135.303         135.401    
          135.488         135.564         135.633         135.693         135.747         135.795         135.837         135.874         135.904         135.927    
          135.943         135.947         135.937         135.908         135.866         135.812         135.751         135.693         135.643         135.602    
          135.567         135.539         135.515         135.494         135.475         135.459         135.445         135.433         135.422         135.411    
          135.399         135.390         135.383         135.374         133.495         133.502         133.512         133.523         133.534         133.546    
          133.557         133.568         133.578         133.589         133.600         133.611         133.623         133.637         133.652         133.669    
          133.689         133.713         133.741         133.774         133.809         133.846         133.883         133.921         133.960         133.993    
          134.017         133.995         134.016         134.048         134.077         134.045         134.077         134.139         134.231         134.329    
          134.431         134.539         134.653         134.773         134.894         135.013         135.127         135.231         135.324         135.407    
          135.481         135.547         135.606         135.657         135.703         135.742         135.775         135.802         135.823         135.835    
          135.838         135.828         135.806         135.775         135.735         135.691         135.648         135.610         135.576         135.547    
          135.522         135.501         135.482         135.465         135.450         135.437         135.425         135.415         135.404         135.392    
          135.382         135.373         135.363         135.354         133.493         133.500         133.510         133.521         133.533         133.545    
          133.557         133.569         133.581         133.593         133.606         133.619         133.632         133.647         133.664         133.682    
          133.703         133.727         133.755         133.785         133.818         133.853         133.889         133.926         133.965         134.009    
          134.047         134.076         134.049         134.073         134.112         134.143         134.106         134.141         134.206         134.298    
          134.398         134.503         134.614         134.730         134.845         134.956         135.062         135.160         135.248         135.327    
          135.398         135.461         135.518         135.567         135.610         135.647         135.679         135.704         135.722         135.733    
          135.736         135.730         135.715         135.693         135.665         135.633         135.602         135.573         135.546         135.522    
          135.502         135.483         135.467         135.452         135.439         135.427         135.416         135.405         135.394         135.382    
          135.372         135.362         135.353         135.344         135.335         133.492         133.499         133.509         133.520         133.533    
          133.546         133.558         133.571         133.584         133.597         133.611         133.625         133.640         133.656         133.673    
          133.693         133.714         133.738         133.765         133.795         133.826         133.860         133.895         133.931         133.970    
          134.013         134.062         134.105         134.136         134.104         134.129         134.174         134.205         134.163         134.199    
          134.266         134.360         134.463         134.571         134.683         134.794         134.899         135.000         135.092         135.176    
          135.252         135.319         135.380         135.434         135.481         135.523         135.558         135.587         135.611         135.628    
          135.639         135.644         135.641         135.633         135.619         135.600         135.578         135.556         135.534         135.514    
          135.495         135.479         135.463         135.449         135.436         135.425         135.414         135.404         135.394         135.381    
          135.369         135.359         135.350         135.342         135.334         135.327         135.321         133.491         133.497         133.508    
          133.520         133.533         133.546         133.559         133.573         133.587         133.601         133.615         133.630         133.646    
          133.663         133.682         133.702         133.724         133.748         133.774         133.802         133.833         133.866         133.900    
          133.936         133.974         134.016         134.062         134.112         134.157         134.188         134.153         134.177         134.226    
          134.258         134.211         134.248         134.320         134.420         134.527         134.637         134.744         134.845         134.941    
          135.029         135.110         135.182         135.246         135.304         135.356         135.401         135.441         135.475         135.503    
          135.526         135.543         135.555         135.561         135.562         135.560         135.552         135.540         135.526         135.511    
          135.495         135.481         135.467         135.454         135.441         135.429         135.418         135.408         135.399         135.390    
          135.379         135.366         135.354         135.345         135.337         135.330         135.324         135.319         135.314         135.309    
          133.490         133.497         133.507         133.520         133.533         133.547         133.561         133.575         133.589         133.604    
          133.619         133.635         133.652         133.669         133.688         133.709         133.731         133.755         133.781         133.809    
          133.839         133.871         133.905         133.940         133.978         134.018         134.062         134.108         134.157         134.201    
          134.234         134.196         134.221         134.275         134.310         134.258         134.299         134.378         134.484         134.592    
          134.697         134.795         134.887         134.972         135.049         135.119         135.180         135.236         135.285         135.328    
          135.366         135.399         135.426         135.449         135.466         135.479         135.487         135.491         135.493         135.490    
          135.485         135.477         135.468         135.458         135.447         135.438         135.428         135.418         135.408         135.399    
          135.390         135.382         135.373         135.361         135.349         135.339         135.332         135.325         135.319         135.314    
          135.310         135.307         135.305         133.490         133.497         133.507         133.520         133.533         133.547         133.562    
          133.576         133.591         133.607         133.623         133.639         133.656         133.674         133.694         133.714         133.737    
          133.761         133.786         133.814         133.844         133.875         133.909         133.944         133.981         134.021         134.062    
          134.106         134.152         134.200         134.247         134.284         134.243         134.272         134.332         134.372         134.316    
          134.363         134.446         134.552         134.655         134.751         134.839         134.920         134.995         135.062         135.121    
          135.174         135.221         135.263         135.299         135.331         135.357         135.380         135.398         135.412         135.422    
          135.429         135.433         135.435         135.434         135.431         135.427         135.421         135.415         135.408         135.401    
          135.394         135.386         135.378         135.371         135.363         135.353         135.342         135.332         135.325         135.319    
          135.313         135.309         135.305         135.302         135.300         135.298         133.490         133.497         133.507         133.520    
          133.534         133.548         133.562         133.577         133.593         133.609         133.625         133.642         133.660         133.678    
          133.698         133.719         133.741         133.765         133.791         133.818         133.848         133.879         133.912         133.947    
          133.984         134.023         134.064         134.107         134.152         134.199         134.252         134.307         134.351         134.302    
          134.344         134.419         134.520         134.618         134.711         134.797         134.875         134.947         135.011         135.069    
          135.120         135.164         135.204         135.240         135.271         135.297         135.319         135.338         135.353         135.365    
          135.374         135.380         135.384         135.388         135.389         135.388         135.386         135.383         135.379         135.374    
          135.369         135.363         135.357         135.350         135.343         135.333         135.324         135.317         135.311         135.306    
          135.302         135.299         135.296         135.294         135.292         135.291         133.490         133.497         133.508         133.520    
          133.534         133.548         133.563         133.578         133.594         133.610         133.627         133.644         133.662         133.681    
          133.701         133.722         133.745         133.769         133.794         133.822         133.851         133.882         133.914         133.949    
          133.986         134.025         134.066         134.109         134.154         134.202         134.254         134.300         134.337         134.300    
          134.335         134.401         134.496         134.589         134.678         134.760         134.835         134.904         134.966         135.022    
          135.071         135.115         135.153         135.187         135.217         135.244         135.266         135.285         135.301         135.315    
          135.325         135.334         135.340         135.345         135.349         135.352         135.353         135.352         135.351         135.348    
          135.345         135.340         135.336         135.330         135.323         135.315         135.308         135.303         135.299         135.295    
          135.292         135.289         135.287         135.286         135.285         135.284         133.491         133.498         133.509         133.521    
          133.534         133.548         133.563         133.579         133.594         133.611         133.628         133.646         133.664         133.683    
          133.703         133.725         133.747         133.771         133.797         133.824         133.853         133.884         133.916         133.951    
          133.988         134.027         134.068         134.112         134.158         134.207         134.260         134.304         134.336         134.308    
          134.335         134.377         134.412         134.374         134.413         134.480         134.567         134.650         134.729         134.801    
          134.867         134.927         134.981         135.028         135.070         135.107         135.140         135.170         135.196         135.219    
          135.239         135.257         135.271         135.283         135.293         135.301         135.308         135.313         135.318         135.322    
          135.324         135.324         135.323         135.321         135.318         135.315         135.311         135.305         135.299         135.294    
          135.291         135.287         135.285         135.283         135.281         135.279         135.279         135.278         135.278         133.492    
          133.500         133.510         133.522         133.534         133.548         133.563         133.578         133.595         133.611         133.629    
          133.647         133.665         133.685         133.705         133.726         133.749         133.773         133.799         133.826         133.855    
          133.885         133.918         133.952         133.989         134.028         134.070         134.114         134.161         134.210         134.264    
          134.323         134.375         134.412         134.374         134.411         134.470         134.550         134.629         134.703         134.772    
          134.836         134.893         134.945         134.990         135.031         135.067         135.099         135.128         135.154         135.178    
          135.199         135.217         135.232         135.246         135.258         135.267         135.275         135.282         135.288         135.293    
          135.297         135.299         135.300         135.300         135.298         135.296         135.293         135.289         135.286         135.282    
          135.280         135.278         135.276         135.274         135.273         135.272         135.272         135.271         135.271         133.505    
          133.512         133.522         133.534         133.548         133.562         133.578         133.594         133.611         133.628         133.646    
          133.665         133.685         133.705         133.727         133.750         133.774         133.800         133.827         133.856         133.886    
          133.918         133.952         133.989         134.028         134.070         134.114         134.161         134.212         134.265         134.323    
          134.373         134.408         134.371         134.405         134.461         134.536         134.609         134.680         134.747         134.809    
          134.864         134.913         134.957         134.996         135.030         135.061         135.090         135.116         135.140         135.162    
          135.181         135.198         135.213         135.226         135.237         135.246         135.254         135.261         135.268         135.273    
          135.277         135.279         135.280         135.280         135.280         135.278         135.276         135.274         135.272         135.270    
          135.269         135.268         135.267         135.266         135.266         135.265         135.265         135.265         133.515         133.524    
          133.535         133.547         133.561         133.577         133.593         133.609         133.627         133.646         133.665         133.685    
          133.705         133.727         133.750         133.774         133.800         133.827         133.856         133.886         133.918         133.952    
          133.988         134.027         134.069         134.113         134.160         134.209         134.263         134.309         134.334         134.305    
          134.334         134.368         134.401         134.365         134.398         134.451         134.521         134.592         134.661         134.725    
          134.784         134.839         134.886         134.929         134.966         135.000         135.014         134.986         135.001         135.031    
          135.042         135.016         135.031         135.057         135.084         135.108         135.129         135.149         135.167         135.183    
          135.197         135.210         135.221         135.230         135.238         135.246         135.252         135.257         135.260         135.263    
          135.265         135.266         135.266         135.265         135.264         135.263         135.262         135.261         135.261         135.260    
          135.260         135.259         135.259         135.259         135.258         133.527         133.536         133.547         133.560         133.575    
          133.591         133.608         133.625         133.644         133.663         133.683         133.704         133.726         133.750         133.774    
          133.800         133.827         133.855         133.885         133.917         133.951         133.987         134.025         134.066         134.109    
          134.155         134.205         134.258         134.302         134.330         134.300         134.325         134.362         134.393         134.358    
          134.385         134.428         134.455         134.420         134.452         134.506         134.575         134.643         134.706         134.763    
          134.816         134.863         134.904         134.939         134.954         134.927         134.943         134.972         134.988         134.959    
          134.975         135.003         135.017         134.990         135.004         135.031         135.041         135.018         135.031         135.055    
          135.079         135.101         135.121         135.139         135.156         135.172         135.186         135.198         135.208         135.218    
          135.226         135.233         135.239         135.244         135.247         135.250         135.252         135.253         135.254         135.255    
          135.255         135.254         135.254         135.254         135.253         135.253         135.253         135.252         135.252         135.252    
          133.538         133.548         133.560         133.574         133.589         133.606         133.623         133.642         133.661         133.682    
          133.703         133.725         133.748         133.773         133.799         133.826         133.854         133.884         133.915         133.948    
          133.984         134.021         134.061         134.104         134.149         134.197         134.249         134.305         134.364         134.414    
          134.446         134.410         134.437         134.482         134.510         134.474         134.502         134.549         134.578         134.541    
          134.570         134.616         134.644         134.607         134.635         134.679         134.705         134.670         134.696         134.737    
          134.761         134.728         134.752         134.790         134.811         134.781         134.802         134.837         134.856         134.828    
          134.846         134.879         134.895         134.869         134.885         134.915         134.931         134.905         134.920         134.948    
          134.963         134.937         134.952         134.978         134.992         134.967         134.981         135.005         135.017         134.994    
          135.008         135.031         135.054         135.076         135.096         135.115         135.132         135.148         135.163         135.177    
          135.188         135.198         135.208         135.216         135.222         135.228         135.232         135.236         135.239         135.241    
          135.243         135.245         135.246         135.246         135.247         135.247         135.247         135.247         135.247         135.246    
          135.246         135.246         133.551         133.560         133.573         133.587         133.604         133.621         133.639         133.659    
          133.679         133.700         133.723         133.746         133.771         133.797         133.824         133.852         133.881         133.912    
          133.945         133.979         134.016         134.055         134.097         134.141         134.188         134.239         134.293         134.350    
          134.412         134.476         134.543         134.608         134.669         134.727         134.778         134.823         134.863         134.899    
          134.927         134.942         134.920         134.932         134.957         134.970         134.948         134.959         134.983         134.996    
          134.973         134.986         135.009         135.018         134.998         135.010         135.032         135.054         135.074         135.093    
          135.110         135.127         135.142         135.156         135.169         135.180         135.190         135.199         135.206         135.212    
          135.218         135.222         135.226         135.229         135.232         135.234         135.236         135.238         135.238         135.239    
          135.240         135.240         135.240         135.240         135.240         135.240         133.563         133.573         133.586         133.601    
          133.618         133.636         133.655         133.676         133.697         133.720         133.744         133.768         133.794         133.821    
          133.849         133.878         133.908         133.940         133.974         134.010         134.048         134.088         134.131         134.177    
          134.226         134.279         134.336         134.395         134.459         134.525         134.591         134.652         134.710         134.762    
          134.807         134.846         134.881         134.913         134.940         134.963         134.976         134.955         134.967         134.988    
          134.999         134.980         134.990         135.012         135.033         135.053         135.072         135.090         135.106         135.122    
          135.137         135.150         135.162         135.172         135.182         135.190         135.197         135.203         135.209         135.213    
          135.217         135.220         135.224         135.226         135.228         135.230         135.231         135.232         135.232         135.233    
          135.233         135.233         135.233         133.576         133.586         133.600         133.615         133.633         133.652         133.672    
          133.693         133.716         133.740         133.765         133.790         133.817         133.845         133.874         133.904         133.935    
          133.968         134.003         134.039         134.078         134.120         134.165         134.213         134.264         134.320         134.378    
          134.441         134.508         134.575         134.636         134.694         134.746         134.792         134.831         134.866         134.897    
          134.921         134.933         134.914         134.926         134.946         134.957         134.938         134.950         134.971         134.993    
          135.014         135.034         135.053         135.070         135.087         135.103         135.118         135.131         135.143         135.154    
          135.165         135.174         135.182         135.189         135.195         135.200         135.204         135.209         135.213         135.216    
          135.219         135.221         135.223         135.224         135.225         135.226         135.226         135.226         135.227         133.589    
          133.599         133.613         133.630         133.648         133.668         133.689         133.712         133.735         133.760         133.786    
          133.813         133.840         133.869         133.898         133.928         133.961         133.994         134.030         134.067         134.108    
          134.151         134.198         134.248         134.303         134.361         134.423         134.489         134.558         134.621         134.679    
          134.731         134.778         134.817         134.852         134.882         134.906         134.918         134.900         134.910         134.930    
          134.941         134.922         134.934         134.954         134.976         134.997         135.016         135.035         135.052         135.069    
          135.084         135.099         135.113         135.125         135.136         135.148         135.158         135.167         135.174         135.181    
          135.187         135.192         135.197         135.201         135.206         135.209         135.212         135.214         135.216         135.217    
          135.218         135.219         135.219         135.219         133.602         133.613         133.627         133.644         133.663         133.684    
          133.707         133.730         133.755         133.781         133.807         133.835         133.863         133.892         133.921         133.953    
          133.985         134.020         134.056         134.095         134.136         134.182         134.231         134.284         134.341         134.404    
          134.470         134.539         134.604         134.664         134.717         134.764         134.804         134.838         134.868         134.894    
          134.915         134.926         134.909         134.920         134.939         134.960         134.980         135.000         135.018         135.035    
          135.052         135.067         135.081         135.095         135.107         135.119         135.130         135.141         135.151         135.160    
          135.167         135.174         135.180         135.186         135.191         135.195         135.199         135.202         135.205         135.207    
          135.209         135.210         135.211         135.212         135.212         133.614         133.626         133.641         133.659         133.680    
          133.702         133.725         133.749         133.775         133.801         133.828         133.856         133.884         133.914         133.944    
          133.976         134.009         134.044         134.081         134.122         134.166         134.214         134.266         134.322         134.383    
          134.449         134.519         134.587         134.649         134.703         134.749         134.790         134.825         134.854         134.879    
          134.900         134.912         134.894         134.905         134.924         134.945         134.965         134.984         135.002         135.020    
          135.036         135.051         135.065         135.079         135.091         135.102         135.114         135.125         135.136         135.146    
          135.154         135.162         135.169         135.175         135.180         135.185         135.189         135.193         135.196         135.198    
          135.201         135.202         135.204         135.205         135.205         133.628         133.640         133.657         133.675         133.696    
          133.719         133.743         133.768         133.794         133.821         133.849         133.877         133.906         133.935         133.966    
          133.998         134.032         134.068         134.107         134.150         134.196         134.247         134.302         134.362         134.428    
          134.498         134.568         134.632         134.688         134.736         134.776         134.810         134.839         134.864         134.885    
          134.896         134.878         134.889         134.909         134.930         134.950         134.970         134.989         135.006         135.022    
          135.037         135.051         135.064         135.076         135.088         135.099         135.111         135.122         135.132         135.142    
          135.150         135.157         135.164         135.170         135.175         135.180         135.184         135.187         135.190         135.192    
          135.194         135.196         135.197         135.198         133.642         133.656         133.673         133.692         133.714         133.737    
          133.761         133.787         133.813         133.841         133.868         133.897         133.926         133.956         133.987         134.020    
          134.055         134.093         134.134         134.179         134.229         134.284         134.343         134.409         134.478         134.549    
          134.614         134.672         134.720         134.760         134.794         134.822         134.848         134.869         134.880         134.862    
          134.873         134.893         134.915         134.936         134.957         134.976         134.994         135.010         135.025         135.038    
          135.051         135.063         135.075         135.087         135.098         135.109         135.120         135.130         135.139         135.147    
          135.151         135.142         135.146         135.155         135.158         135.150         135.153         135.161         135.164         135.156    
          135.159         135.167         135.170         135.162         135.165         135.172         135.174         135.168         135.170         135.176    
          135.178         135.172         135.174         135.180         135.182         135.176         135.178         135.183         135.185         135.179    
          135.181         135.186         135.187         135.182         135.184         135.187         135.189         135.190         135.191         133.659    
          133.672         133.689         133.709         133.731         133.754         133.779         133.805         133.832         133.860         133.888    
          133.917         133.946         133.977         134.008         134.042         134.079         134.119         134.164         134.213         134.267    
          134.326         134.391         134.459         134.529         134.595         134.653         134.702         134.743         134.776         134.805    
          134.831         134.853         134.864         134.845         134.856         134.877         134.900         134.923         134.944         134.964    
          134.983         135.000         135.015         135.029         135.041         135.053         135.064         135.075         135.087         135.098    
          135.103         135.094         135.099         135.109         135.114         135.105         135.109         135.120         135.124         135.115    
          135.119         135.129         135.133         135.124         135.128         135.137         135.141         135.133         135.136         135.144    
          135.151         135.157         135.162         135.167         135.172         135.174         135.169         135.170         135.176         135.177    
          135.172         135.173         135.179         135.180         135.175         135.176         135.181         135.182         135.178         135.179    
          135.182         135.183         135.184         133.675         133.688         133.705         133.725         133.747         133.771         133.796    
          133.823         133.850         133.878         133.907         133.936         133.967         133.998         134.031         134.067         134.106    
          134.150         134.199         134.254         134.313         134.376         134.441         134.507         134.571         134.630         134.684    
          134.725         134.759         134.789         134.812         134.823         134.805         134.816         134.836         134.847         134.829    
          134.839         134.861         134.885         134.909         134.932         134.954         134.973         134.991         135.007         135.021    
          135.033         135.045         135.056         135.067         135.072         135.063         135.069         135.078         135.083         135.075    
          135.079         135.089         135.094         135.085         135.090         135.100         135.110         135.119         135.128         135.135    
          135.142         135.149         135.155         135.160         135.164         135.168         135.171         135.174         135.176         135.172    
          135.173         135.177         135.177         135.174         135.175         135.177         135.179         133.691         133.704         133.721    
          133.741         133.763         133.788         133.814         133.841         133.869         133.898         133.927         133.957         133.988    
          134.021         134.057         134.096         134.140         134.191         134.245         134.304         134.366         134.428         134.491    
          134.553         134.612         134.666         134.708         134.743         134.773         134.796         134.808         134.790         134.801    
          134.822         134.847         134.871         134.896         134.921         134.944         134.965         134.983         134.999         135.014    
          135.027         135.039         135.049         135.054         135.046         135.052         135.060         135.065         135.057         135.062    
          135.072         135.083         135.093         135.102         135.111         135.120         135.128         135.135         135.141         135.147    
          135.153         135.157         135.161         135.165         135.168         135.171         135.172         135.168         135.169         135.173    
          135.173         135.170         135.170         135.174         135.171         133.706         133.718         133.735         133.756         133.779    
          133.804         133.831         133.859         133.888         133.918         133.948         133.980         134.013         134.049         134.089    
          134.133         134.184         134.239         134.297         134.357         134.418         134.478         134.538         134.594         134.646    
          134.690         134.726         134.757         134.781         134.793         134.775         134.785         134.806         134.816         134.798    
          134.811         134.833         134.859         134.885         134.911         134.935         134.957         134.976         134.993         135.008    
          135.021         135.033         135.043         135.049         135.041         135.047         135.056         135.067         135.077         135.087    
          135.097         135.105         135.114         135.121         135.128         135.135         135.141         135.147         135.151         135.156    
          135.159         135.162         135.165         135.166         135.167         133.719         133.732         133.749         133.770         133.794    
          133.821         133.849         133.879         133.909         133.940         133.973         134.007         134.044         134.085         134.131    
          134.180         134.234         134.291         134.350         134.409         134.467         134.523         134.576         134.625         134.669    
          134.707         134.739         134.768         134.790         134.803         134.784         134.797         134.820         134.847         134.874    
          134.901         134.927         134.950         134.970         134.987         135.002         135.016         135.027         135.033         135.025    
          135.031         135.039         135.044         135.038         135.043         135.052         135.063         135.073         135.083         135.092    
          135.100         135.108         135.116         135.123         135.129         135.136         135.141         135.146         135.151         135.155    
          135.158         135.161         135.163         135.164         133.732         133.744         133.762         133.785         133.811         133.840    
          133.870         133.901         133.934         133.968         134.003         134.042         134.084         134.129         134.177         134.230    
          134.286         134.343         134.400         134.455         134.508         134.560         134.606         134.648         134.685         134.720    
          134.751         134.776         134.790         134.770         134.782         134.804         134.816         134.797         134.811         134.835    
          134.864         134.893         134.919         134.943         134.961         134.970         134.958         134.968         134.980         134.987    
          134.978         134.985         134.996         135.002         134.994         135.000         135.010         135.016         135.008         135.014    
          135.023         135.029         135.022         135.027         135.038         135.049         135.060         135.070         135.079         135.088    
          135.096         135.104         135.111         135.118         135.125         135.131         135.137         135.142         135.147         135.151    
          135.155         135.158         135.161         135.163         133.742         133.756         133.776         133.801         133.830         133.862    
          133.895         133.929         133.965         134.003         134.043         134.084         134.128         134.175         134.227         134.281    
          134.336         134.391         134.443         134.494         134.543         134.588         134.628         134.665         134.699         134.732    
          134.764         134.790         134.805         134.785         134.797         134.820         134.833         134.813         134.829         134.855    
          134.885         134.909         134.920         134.905         134.918         134.934         134.943         134.931         134.941         134.955    
          134.965         134.953         134.962         134.978         134.994         135.009         135.022         135.035         135.046         135.057    
          135.067         135.076         135.085         135.092         135.100         135.107         135.114         135.121         135.127         135.133    
          135.138         135.143         135.148         135.152         135.155         133.754         133.770         133.793         133.822         133.855    
          133.890         133.927         133.966         134.005         134.045         134.085         134.127         134.174         134.223         134.276    
          134.328         134.380         134.430         134.479         134.526         134.570         134.609         134.646         134.680         134.712    
          134.746         134.779         134.806         134.823         134.802         134.816         134.840         134.854         134.834         134.849    
          134.872         134.885         134.867         134.881         134.901         134.914         134.898         134.911         134.932         134.955    
          134.974         134.991         135.006         135.020         135.032         135.044         135.055         135.065         135.074         135.082    
          135.089         135.097         135.104         135.111         135.117         135.123         135.129         135.135         135.141         135.144    
          133.768         133.787         133.815         133.850         133.888         133.929         133.970         134.009         134.048         134.087    
          134.128         134.172         134.220         134.269         134.320         134.369         134.416         134.463         134.509         134.552    
          134.590         134.627         134.661         134.694         134.729         134.764         134.798         134.834         134.868         134.900    
          134.928         134.952         134.971         134.988         135.003         135.018         135.030         135.042         135.053         135.063    
          135.072         135.080         135.087         135.094         135.101         135.108         135.114         135.120         135.126         135.130    
          133.787         133.811         133.848         133.892         133.936         133.977         134.015         134.052         134.090         134.129    
          134.171         134.216         134.263         134.310         134.356         134.402         134.446         134.491         134.533         134.572    
          134.610         134.645         134.679         134.715         134.751         134.788         134.826         134.862         134.896         134.926    
          134.950         134.969         134.986         135.002         135.016         135.029         135.040         135.051         135.061         135.070    
          135.078         135.085         135.092         135.098         135.106         135.112         135.116         133.813         133.852         133.902    
          133.947         133.986         134.022         134.058         134.094         134.131         134.171         134.213         134.256         134.300    
          134.343         134.386         134.429         134.471         134.513         134.556         134.595         134.631         134.667         134.705    
          134.743         134.780         134.821         134.858         134.893         134.924         134.948         134.968         134.985         135.001    
          135.015         135.027         135.038         135.048         135.060         135.069         135.077         135.084         135.090         135.094    
          133.865         133.921         133.963         133.999         134.032         134.065         134.099         134.134         134.171         134.210    
          134.249         134.290         134.330         134.370         134.410         134.452         134.493         134.543         134.585         134.623    
          134.659         134.698         134.738         134.777         134.818         134.857         134.893         134.923         134.948         134.968    
          134.985         135.000         135.014         135.026         135.036         135.042         133.954         133.985         134.014         134.043    
          134.072         134.103         134.136         134.171         134.207         134.243         134.280         134.316         134.354         134.391    
          134.435         134.464         134.008         134.031         134.053         134.079         134.107         134.138         134.170         134.204    
          134.238         134.270         134.302         134.340         134.365         134.046         134.061         134.083         134.109         134.138    
          134.170         134.203         134.234         134.262         134.282    
1
  HEAD IN LAYER   3 AT END OF TIME STEP   1 IN STRESS PERIOD    2
  ---------------------------------------------------------------------------

                1               2               3               4               5               6               7               8               9              10
               11              12              13              14              15              16              17              18              19              20
               21              22              23              24              25              26              27              28              29              30
               31              32              33              34              35              36              37              38              39              40
               41              42              43              44              45              46              47              48              49              50
               51              52              53              54              55              56              57              58              59              60
               61              62              63              64              65              66              67              68              69              70
               71              72              73              74              75              76              77              78              79              80
               81              82              83              84              85              86              87              88              89              90
               91              92              93              94              95              96              97              98              99             100
              101             102             103             104             105             106             107             108             109             110
              111             112             113             114             115             116             117             118             119             120
              121             122             123             124             125             126             127             128             129             130
              131             132             133             134             135             136             137             138             139             140
              141             142             143             144             145             146             147             148             149             150
              151             152             153             154             155             156             157             158             159             160
              161             162             163             164             165             166             167             168             169             170
              171             172             173             174             175             176             177             178             179             180
              181             182             183             184             185             186             187             188             189             190
              191             192             193             194             195             196             197             198             199             200
              201             202             203             204             205             206             207             208             209             210
              211             212             213             214             215             216             217             218             219             220
              221             222             223             224             225             226             227             228             229             230
              231             232             233             234             235             236             237             238             239             240
              241             242             243             244             245             246             247             248             249             250
              251             252             253             254             255             256             257             258             259             260
              261             262             263             264             265             266             267             268             269             270
              271             272             273             274             275             276             277             278             279             280
              281             282             283             284             285             286             287             288             289             290
              291             292             293             294             295             296             297             298             299             300
              301             302             303             304             305             306             307             308             309             310
              311             312             313             314             315             316             317             318             319             320
              321             322             323             324             325             326             327             328             329             330
              331             332             333             334             335             336             337             338             339             340
              341             342             343             344             345             346             347             348             349             350
              351             352             353             354             355             356             357             358             359             360
              361             362             363             364             365             366             367             368             369             370
              371             372             373             374             375             376             377             378             379             380
              381             382             383             384             385             386             387             388             389             390
              391             392             393             394             395             396             397             398             399             400
              401             402             403             404             405             406             407             408             409             410
              411             412             413             414             415             416             417             418             419             420
              421             422             423             424             425             426             427             428             429             430
              431             432             433             434             435             436             437             438             439             440
              441             442             443             444             445             446             447             448             449             450
              451             452             453             454             455             456             457             458             459             460
              461             462             463             464             465             466             467             468             469             470
              471             472             473             474             475             476             477             478             479             480
              481             482             483             484             485             486             487             488             489             490
              491             492             493             494             495             496             497             498             499             500
              501             502             503             504             505             506             507             508             509             510
              511             512             513             514             515             516             517             518             519             520
              521             522             523             524             525             526             527             528             529             530
              531             532             533             534             535             536             537             538             539             540
              541             542             543             544             545             546             547             548             549             550
              551             552             553             554             555             556             557             558             559             560
              561             562             563             564             565             566             567             568             569             570
              571             572             573             574             575             576             577             578             579             580
              581             582             583             584             585             586             587             588             589             590
              591             592             593             594             595             596             597             598             599             600
              601             602             603             604             605             606             607             608             609             610
              611             612             613             614             615             616             617             618             619             620
              621             622             623             624             625             626             627             628             629             630
              631             632             633             634             635             636             637             638             639             640
              641             642             643             644             645             646             647             648             649             650
              651             652             653             654             655             656             657             658             659             660
              661             662             663             664             665             666             667             668             669             670
              671             672             673             674             675             676             677             678             679             680
              681             682             683             684             685             686             687             688             689             690
              691             692             693             694             695             696             697             698             699             700
              701             702             703             704             705             706             707             708             709             710
              711             712             713             714             715             716             717             718             719             720
              721             722             723             724             725             726             727             728             729             730
              731             732             733             734             735             736             737             738             739             740
              741             742             743             744             745             746             747             748             749             750
              751             752             753             754             755             756             757             758             759             760
              761             762             763             764             765             766             767             768             769             770
              771             772             773             774             775             776             777             778             779             780
              781             782             783             784             785             786             787             788             789             790
              791             792             793             794             795             796             797             798             799             800
              801             802             803             804             805             806             807             808             809             810
              811             812             813             814             815             816             817             818             819             820
              821             822             823             824             825             826             827             828             829             830
              831             832             833             834             835             836             837             838             839             840
              841             842             843             844             845             846             847             848             849             850
              851             852             853             854             855             856             857             858             859             860
              861             862             863             864             865             866             867             868             869             870
              871             872             873             874             875             876             877             878             879             880
              881             882             883             884             885             886             887             888             889             890
              891             892             893             894             895             896             897             898             899             900
              901             902             903             904             905             906             907             908             909             910
              911             912             913             914             915             916             917             918             919             920
              921             922             923             924             925             926             927             928             929             930
              931             932             933             934             935             936             937             938             939             940
              941             942             943             944             945             946             947             948             949             950
              951             952             953             954             955             956             957             958             959             960
              961             962             963             964             965             966             967             968             969             970
              971             972             973             974             975             976             977             978             979             980
              981             982             983             984             985             986             987             988             989             990
              991             992             993             994             995             996             997             998             999            1000
             1001            1002            1003            1004            1005            1006            1007            1008            1009            1010
             1011            1012            1013            1014            1015            1016            1017            1018            1019            1020
             1021            1022            1023            1024            1025            1026            1027            1028            1029            1030
             1031            1032            1033            1034            1035            1036            1037            1038            1039            1040
             1041            1042            1043            1044            1045            1046            1047            1048            1049            1050
             1051            1052            1053            1054            1055            1056            1057            1058            1059            1060
             1061            1062            1063            1064            1065            1066            1067            1068            1069            1070
             1071            1072            1073            1074            1075            1076            1077            1078            1079            1080
             1081            1082            1083            1084            1085            1086            1087            1088            1089            1090
             1091            1092            1093            1094            1095            1096            1097            1098            1099            1100
             1101            1102            1103            1104            1105            1106            1107            1108            1109            1110
             1111            1112            1113            1114            1115            1116            1117            1118            1119            1120
             1121            1122            1123            1124            1125            1126            1127            1128            1129            1130
             1131            1132            1133            1134            1135            1136            1137            1138            1139            1140
             1141            1142            1143            1144            1145            1146            1147            1148            1149            1150
             1151            1152            1153            1154            1155            1156            1157            1158            1159            1160
             1161            1162            1163            1164            1165            1166            1167            1168            1169            1170
             1171            1172            1173            1174            1175            1176            1177            1178            1179            1180
             1181            1182            1183            1184            1185            1186            1187            1188            1189            1190
             1191            1192            1193            1194            1195            1196            1197            1198            1199            1200
             1201            1202            1203            1204            1205            1206            1207            1208            1209            1210
             1211            1212            1213            1214            1215            1216            1217            1218            1219            1220
             1221            1222            1223            1224            1225            1226            1227            1228            1229            1230
             1231            1232            1233            1234            1235            1236            1237            1238            1239            1240
             1241            1242            1243            1244            1245            1246            1247            1248            1249            1250
             1251            1252            1253            1254            1255            1256            1257            1258            1259            1260
             1261            1262            1263            1264            1265            1266            1267            1268            1269            1270
             1271            1272            1273            1274            1275            1276            1277            1278            1279            1280
             1281            1282            1283            1284            1285            1286            1287            1288            1289            1290
             1291            1292            1293            1294            1295            1296            1297            1298            1299            1300
             1301            1302            1303            1304            1305            1306            1307            1308            1309            1310
             1311            1312            1313            1314            1315            1316            1317            1318            1319            1320
             1321            1322            1323            1324            1325            1326            1327            1328            1329            1330
             1331            1332            1333            1334            1335            1336            1337            1338            1339            1340
             1341            1342            1343            1344            1345            1346            1347            1348            1349            1350
             1351            1352            1353            1354            1355            1356            1357            1358            1359            1360
             1361            1362            1363            1364            1365            1366            1367            1368            1369            1370
             1371            1372            1373            1374            1375            1376            1377            1378            1379            1380
             1381            1382            1383            1384            1385            1386            1387            1388            1389            1390
             1391            1392            1393            1394            1395            1396            1397            1398            1399            1400
             1401            1402            1403            1404            1405            1406            1407            1408            1409            1410
             1411            1412            1413            1414            1415            1416            1417            1418            1419            1420
             1421            1422            1423            1424            1425            1426            1427            1428            1429            1430
             1431            1432            1433            1434            1435            1436            1437            1438            1439            1440
             1441            1442            1443            1444            1445            1446            1447            1448            1449            1450
             1451            1452            1453            1454            1455            1456            1457            1458            1459            1460
             1461            1462            1463            1464            1465            1466            1467            1468            1469            1470
             1471            1472            1473            1474            1475            1476            1477            1478            1479            1480
             1481            1482            1483            1484            1485            1486            1487            1488            1489            1490
             1491            1492            1493            1494            1495            1496            1497            1498            1499            1500
             1501            1502            1503            1504            1505            1506            1507            1508            1509            1510
             1511            1512            1513            1514            1515            1516            1517            1518            1519            1520
             1521            1522            1523            1524            1525            1526            1527            1528            1529            1530
             1531            1532            1533            1534            1535            1536            1537            1538            1539            1540
             1541            1542            1543            1544            1545            1546            1547            1548            1549            1550
             1551            1552            1553            1554            1555            1556            1557            1558            1559            1560
             1561            1562            1563            1564            1565            1566            1567            1568            1569            1570
             1571            1572            1573            1574            1575            1576            1577            1578            1579            1580
             1581            1582            1583            1584            1585            1586            1587            1588            1589            1590
             1591            1592            1593            1594            1595            1596            1597            1598            1599            1600
             1601            1602            1603            1604            1605            1606            1607            1608            1609            1610
             1611            1612            1613            1614            1615            1616            1617            1618            1619            1620
             1621            1622            1623            1624            1625            1626            1627            1628            1629            1630
             1631            1632            1633            1634            1635            1636            1637            1638            1639            1640
             1641            1642            1643            1644            1645            1646            1647            1648            1649            1650
             1651            1652            1653            1654            1655            1656            1657            1658            1659            1660
             1661            1662            1663            1664            1665            1666            1667            1668            1669            1670
             1671            1672            1673            1674            1675            1676            1677            1678            1679            1680
             1681            1682            1683            1684            1685            1686            1687            1688            1689            1690
             1691            1692            1693            1694            1695            1696            1697            1698            1699            1700
             1701            1702            1703            1704            1705            1706            1707            1708            1709            1710
             1711            1712            1713            1714            1715            1716            1717            1718            1719            1720
             1721            1722            1723            1724            1725            1726            1727            1728            1729            1730
             1731            1732            1733            1734            1735            1736            1737            1738            1739            1740
             1741            1742            1743            1744            1745            1746            1747            1748            1749            1750
             1751            1752            1753            1754            1755            1756            1757            1758            1759            1760
             1761            1762            1763            1764            1765            1766            1767            1768            1769            1770
             1771            1772            1773            1774            1775            1776            1777            1778            1779            1780
             1781            1782            1783            1784            1785            1786            1787            1788            1789            1790
             1791            1792            1793            1794            1795            1796            1797            1798            1799            1800
             1801            1802            1803            1804            1805            1806            1807            1808            1809            1810
             1811            1812            1813            1814            1815            1816            1817            1818            1819            1820
             1821            1822            1823            1824            1825            1826            1827            1828            1829            1830
             1831            1832            1833            1834            1835            1836            1837            1838            1839            1840
             1841            1842            1843            1844            1845            1846            1847            1848            1849            1850
             1851            1852            1853            1854            1855            1856            1857            1858            1859            1860
             1861            1862            1863            1864            1865            1866            1867            1868            1869            1870
             1871            1872            1873            1874            1875            1876            1877            1878            1879            1880
             1881            1882            1883            1884            1885            1886            1887            1888            1889            1890
             1891            1892            1893            1894            1895            1896            1897            1898            1899            1900
             1901            1902            1903            1904            1905            1906            1907            1908            1909            1910
             1911            1912            1913            1914            1915            1916            1917            1918            1919            1920
             1921            1922            1923            1924            1925            1926            1927            1928            1929            1930
             1931            1932            1933            1934            1935            1936            1937            1938            1939            1940
             1941            1942            1943            1944            1945            1946            1947            1948            1949            1950
             1951            1952            1953            1954            1955            1956            1957            1958            1959            1960
             1961            1962            1963            1964            1965            1966            1967            1968            1969            1970
             1971            1972            1973            1974            1975            1976            1977            1978            1979            1980
             1981            1982            1983            1984            1985            1986            1987            1988            1989            1990
             1991            1992            1993            1994            1995            1996            1997            1998            1999            2000
             2001            2002            2003            2004            2005            2006            2007            2008            2009            2010
             2011            2012            2013            2014            2015            2016            2017            2018            2019            2020
             2021            2022            2023            2024            2025            2026            2027            2028            2029            2030
             2031            2032            2033            2034            2035            2036            2037            2038            2039            2040
             2041            2042            2043            2044            2045            2046            2047            2048            2049            2050
             2051            2052            2053            2054            2055            2056            2057            2058            2059            2060
             2061            2062            2063            2064            2065            2066            2067            2068            2069            2070
             2071            2072            2073            2074            2075            2076            2077            2078            2079            2080
             2081            2082            2083            2084            2085            2086            2087            2088            2089            2090
             2091            2092            2093            2094            2095            2096            2097            2098            2099            2100
             2101            2102            2103            2104            2105            2106            2107            2108            2109            2110
             2111            2112            2113            2114            2115            2116            2117            2118            2119            2120
             2121            2122            2123            2124            2125            2126            2127            2128            2129            2130
             2131            2132            2133            2134            2135            2136            2137            2138            2139            2140
             2141            2142            2143            2144            2145            2146            2147            2148            2149            2150
             2151            2152            2153            2154            2155            2156            2157            2158            2159            2160
             2161            2162            2163            2164            2165            2166            2167            2168            2169            2170
             2171            2172            2173            2174            2175            2176            2177            2178            2179            2180
             2181            2182            2183            2184            2185            2186            2187            2188            2189            2190
             2191            2192            2193            2194            2195            2196            2197            2198            2199            2200
             2201            2202            2203            2204            2205            2206            2207            2208            2209            2210
             2211            2212            2213            2214            2215            2216            2217            2218            2219            2220
             2221            2222            2223            2224            2225            2226            2227            2228            2229            2230
             2231            2232            2233            2234            2235            2236            2237            2238            2239            2240
             2241            2242            2243            2244            2245            2246            2247            2248            2249            2250
             2251            2252            2253            2254            2255            2256            2257            2258            2259            2260
             2261            2262            2263            2264            2265            2266            2267            2268            2269            2270
             2271            2272            2273            2274            2275            2276            2277            2278            2279            2280
             2281            2282            2283            2284            2285            2286            2287            2288            2289            2290
             2291            2292            2293            2294            2295            2296            2297            2298            2299            2300
             2301            2302            2303            2304            2305            2306            2307            2308            2309            2310
             2311            2312            2313            2314            2315            2316            2317            2318            2319            2320
             2321            2322            2323            2324            2325            2326            2327            2328            2329            2330
             2331            2332            2333            2334            2335            2336            2337            2338            2339            2340
             2341            2342            2343            2344            2345            2346            2347            2348            2349            2350
             2351            2352            2353            2354            2355            2356            2357            2358            2359            2360
             2361            2362            2363            2364            2365            2366            2367            2368            2369            2370
             2371            2372            2373            2374            2375            2376            2377            2378            2379            2380
             2381            2382            2383            2384            2385            2386            2387            2388            2389            2390
             2391            2392            2393            2394            2395            2396            2397            2398            2399            2400
             2401            2402            2403            2404            2405            2406            2407            2408            2409            2410
             2411            2412            2413            2414            2415            2416            2417            2418            2419            2420
             2421            2422            2423            2424            2425            2426            2427            2428            2429            2430
             2431            2432            2433            2434            2435            2436            2437            2438            2439            2440
             2441            2442            2443            2444            2445            2446            2447            2448            2449            2450
             2451            2452            2453            2454            2455            2456            2457            2458            2459            2460
             2461            2462            2463            2464            2465            2466            2467            2468            2469            2470
             2471            2472            2473            2474            2475            2476            2477            2478            2479            2480
             2481            2482            2483            2484            2485            2486            2487            2488            2489            2490
             2491            2492            2493            2494            2495            2496            2497            2498            2499            2500
             2501            2502            2503            2504            2505            2506            2507            2508            2509            2510
             2511            2512            2513            2514            2515            2516            2517            2518            2519            2520
             2521            2522            2523            2524            2525            2526            2527            2528            2529            2530
             2531            2532            2533            2534            2535            2536            2537            2538            2539            2540
             2541            2542            2543            2544            2545            2546            2547            2548            2549            2550
             2551            2552            2553            2554            2555            2556            2557            2558            2559            2560
             2561            2562            2563            2564            2565            2566            2567            2568            2569            2570
             2571            2572            2573            2574            2575            2576            2577            2578            2579            2580
             2581            2582            2583            2584            2585            2586            2587            2588            2589            2590
             2591            2592            2593            2594            2595            2596            2597            2598            2599            2600
             2601            2602            2603            2604            2605            2606            2607            2608            2609            2610
             2611            2612            2613            2614            2615            2616            2617            2618            2619            2620
             2621            2622            2623            2624            2625            2626            2627            2628            2629            2630
             2631            2632            2633            2634            2635            2636            2637            2638            2639            2640
             2641            2642            2643            2644            2645            2646            2647            2648            2649            2650
             2651            2652            2653            2654            2655            2656            2657            2658            2659            2660
             2661            2662            2663            2664            2665            2666            2667            2668            2669            2670
             2671            2672            2673            2674            2675            2676            2677            2678            2679            2680
             2681            2682            2683            2684            2685            2686            2687            2688            2689            2690
             2691            2692            2693            2694            2695            2696            2697            2698            2699            2700
             2701            2702            2703            2704            2705            2706            2707            2708            2709            2710
             2711            2712            2713            2714            2715            2716            2717            2718            2719            2720
             2721            2722            2723            2724            2725            2726            2727            2728            2729            2730
             2731            2732            2733            2734            2735            2736            2737            2738            2739            2740
             2741            2742            2743            2744            2745            2746            2747            2748            2749            2750
             2751            2752            2753            2754            2755            2756            2757            2758            2759            2760
             2761            2762            2763            2764            2765            2766            2767            2768            2769            2770
             2771            2772            2773            2774            2775            2776            2777            2778            2779            2780
             2781            2782            2783            2784            2785            2786            2787            2788            2789            2790
             2791            2792            2793            2794            2795            2796            2797            2798            2799            2800
             2801            2802            2803            2804            2805            2806            2807            2808            2809            2810
             2811            2812            2813            2814            2815            2816            2817            2818            2819            2820
             2821            2822            2823            2824            2825            2826            2827            2828            2829            2830
             2831            2832            2833            2834            2835            2836            2837            2838            2839            2840
             2841            2842            2843            2844            2845            2846            2847            2848            2849            2850
             2851            2852            2853            2854            2855            2856            2857            2858            2859            2860
             2861            2862            2863            2864            2865            2866            2867            2868            2869            2870
             2871            2872            2873            2874            2875            2876            2877            2878            2879            2880
             2881            2882            2883            2884            2885            2886            2887            2888            2889            2890
             2891            2892            2893            2894            2895            2896            2897            2898            2899            2900
             2901            2902            2903            2904            2905            2906            2907            2908            2909            2910
             2911            2912            2913            2914            2915            2916            2917            2918            2919            2920
             2921            2922            2923            2924            2925            2926            2927            2928            2929            2930
             2931            2932            2933            2934            2935            2936            2937            2938            2939            2940
             2941            2942            2943            2944            2945            2946            2947            2948            2949            2950
             2951            2952            2953            2954            2955            2956            2957            2958            2959            2960
             2961            2962            2963            2964            2965            2966            2967            2968            2969            2970
             2971            2972            2973            2974            2975            2976            2977            2978            2979            2980
             2981            2982            2983            2984            2985            2986            2987            2988            2989            2990
             2991            2992            2993            2994            2995            2996            2997            2998            2999            3000
             3001            3002            3003            3004            3005            3006            3007            3008            3009            3010
             3011            3012            3013            3014            3015            3016            3017            3018            3019            3020
             3021            3022            3023            3024            3025            3026            3027            3028            3029            3030
             3031            3032            3033            3034            3035            3036            3037            3038            3039            3040
             3041            3042            3043            3044            3045            3046            3047            3048            3049            3050
             3051            3052            3053            3054            3055            3056            3057            3058            3059            3060
             3061            3062            3063            3064            3065            3066            3067            3068            3069            3070
             3071            3072            3073            3074            3075            3076            3077            3078            3079            3080
             3081            3082            3083            3084            3085            3086            3087            3088            3089            3090
             3091            3092            3093            3094            3095            3096            3097            3098            3099            3100
             3101            3102            3103            3104            3105            3106            3107            3108            3109            3110
             3111            3112            3113            3114            3115            3116            3117            3118            3119            3120
             3121            3122            3123            3124            3125            3126            3127            3128            3129            3130
             3131            3132            3133            3134            3135
 ................................................................................................................................................................
   1      133.598         133.598         133.597         133.597         133.601         133.604         133.600         133.604         133.612         133.632    
          133.661         133.697         133.741         133.789         133.841         133.896         133.953         134.009         134.066         134.119    
          134.168         134.208         134.234         133.592         133.594         133.595         133.595         133.596         133.599         133.603    
          133.599         133.601         133.608         133.614         133.606         133.613         133.628         133.655         133.691         133.734    
          133.782         133.834         133.889         133.946         134.003         134.060         134.115         134.166         134.211         134.249    
          134.280         133.584         133.588         133.590         133.592         133.592         133.594         133.598         133.605         133.612    
          133.605         133.610         133.620         133.629         133.618         133.627         133.644         133.656         133.640         133.654    
          133.681         133.722         133.769         133.822         133.877         133.935         133.994         134.051         134.108         134.163    
          134.213         134.258         134.298         134.332         133.576         133.580         133.584         133.587         133.588         133.590    
          133.592         133.597         133.606         133.620         133.637         133.651         133.636         133.647         133.667         133.681    
          133.662         133.679         133.710         133.756         133.808         133.864         133.922         133.981         134.040         134.099    
          134.157         134.212         134.263         134.311         134.354         134.391         133.568         133.572         133.576         133.580    
          133.584         133.586         133.589         133.592         133.597         133.606         133.619         133.638         133.660         133.675    
          133.659         133.672         133.694         133.711         133.690         133.709         133.743         133.794         133.850         133.908    
          133.968         134.029         134.089         134.149         134.208         134.265         134.319         134.371         134.418         134.461    
          133.559         133.563         133.568         133.573         133.577         133.582         133.585         133.589         133.594         133.600    
          133.608         133.620         133.638         133.663         133.688         133.706         133.688         133.703         133.728         133.747    
          133.724         133.746         133.784         133.838         133.896         133.956         134.016         134.077         134.140         134.202    
          134.263         134.324         134.383         134.440         134.493         134.543         133.550         133.554         133.560         133.565    
          133.570         133.576         133.581         133.586         133.591         133.596         133.603         133.613         133.625         133.642    
          133.665         133.695         133.724         133.745         133.725         133.743         133.769         133.790         133.767         133.791    
          133.831         133.887         133.945         134.004         134.065         134.129         134.193         134.259         134.325         134.390    
          134.456         134.520         134.583         134.642         133.541         133.546         133.551         133.557         133.563         133.569    
          133.575         133.581         133.587         133.593         133.600         133.609         133.619         133.632         133.649         133.671    
          133.700         133.736         133.768         133.791         133.771         133.790         133.818         133.839         133.816         133.841    
          133.881         133.936         133.993         134.053         134.116         134.182         134.251         134.321         134.394         134.467    
          134.541         134.616         134.692         134.767         133.534         133.538         133.543         133.548         133.554         133.561    
          133.567         133.574         133.581         133.589         133.597         133.605         133.615         133.626         133.640         133.658    
          133.680         133.708         133.742         133.783         133.818         133.841         133.820         133.840         133.868         133.889    
          133.867         133.888         133.919         133.942         133.916         133.938         133.972         133.996         133.967         133.994    
          134.040         134.102         134.169         134.240         134.315         134.392         134.472         134.554         134.640         134.731    
          134.829         134.954         135.059         135.151         135.234         135.310         135.379         135.443         135.499         135.551    
          135.597         135.638         135.673         135.703         135.727         135.746         135.757         135.761         135.755         135.739    
          135.713         135.679         135.643         135.610         135.580         135.553         135.529         135.508         135.489         135.472    
          135.457         135.443         135.431         135.420         135.411         135.403         135.398         133.533         133.536         133.540    
          133.546         133.552         133.559         133.567         133.575         133.583         133.591         133.601         133.611         133.622    
          133.635         133.650         133.668         133.691         133.718         133.750         133.788         133.831         133.876         133.924    
          133.964         133.991         133.963         133.986         134.021         134.044         134.016         134.039         134.078         134.105    
          134.070         134.102         134.155         134.227         134.304         134.385         134.469         134.558         134.651         134.749    
          134.850         134.955         135.053         135.142         135.223         135.298         135.366         135.428         135.485         135.535    
          135.581         135.621         135.656         135.685         135.709         135.727         135.738         135.741         135.736         135.720    
          135.696         135.665         135.632         135.601         135.572         135.547         135.524         135.503         135.485         135.468    
          135.454         135.440         135.428         135.418         135.408         135.400         135.392         135.385         133.531         133.534    
          133.538         133.544         133.551         133.559         133.567         133.575         133.585         133.595         133.605         133.616    
          133.629         133.643         133.660         133.679         133.701         133.728         133.759         133.794         133.833         133.876    
          133.921         133.969         134.021         134.065         134.096         134.062         134.092         134.142         134.213         134.290    
          134.373         134.460         134.552         134.649         134.750         134.849         134.946         135.039         135.125         135.204    
          135.276         135.342         135.403         135.458         135.507         135.552         135.591         135.625         135.654         135.677    
          135.694         135.704         135.708         135.703         135.689         135.667         135.641         135.612         135.584         135.558    
          135.535         135.514         135.495         135.478         135.462         135.448         135.435         135.423         135.413         135.403    
          135.394         135.386         135.378         135.370         133.530         133.532         133.537         133.543         133.550         133.558    
          133.567         133.577         133.587         133.598         133.610         133.622         133.636         133.651         133.669         133.689    
          133.711         133.737         133.767         133.801         133.837         133.877         133.920         133.965         134.015         134.058    
          134.088         134.057         134.081         134.120         134.147         134.113         134.145         134.199         134.274         134.356    
          134.444         134.537         134.635         134.738         134.836         134.929         135.018         135.100         135.176         135.246    
          135.310         135.368         135.422         135.470         135.513         135.551         135.584         135.612         135.634         135.650    
          135.661         135.664         135.660         135.649         135.631         135.609         135.585         135.562         135.539         135.519    
          135.500         135.483         135.467         135.453         135.440         135.428         135.416         135.406         135.396         135.387    
          135.378         135.370         135.362         135.353         133.528         133.531         133.535         133.542         133.550         133.558    
          133.568         133.579         133.590         133.602         133.614         133.628         133.643         133.659         133.677         133.698    
          133.720         133.746         133.775         133.807         133.841         133.879         133.920         133.963         134.011         134.064    
          134.110         134.140         134.108         134.134         134.175         134.203         134.167         134.200         134.257         134.337    
          134.423         134.516         134.614         134.716         134.813         134.903         134.990         135.070         135.143         135.210    
          135.272         135.328         135.380         135.427         135.468         135.505         135.537         135.563         135.585         135.601    
          135.611         135.615         135.613         135.605         135.591         135.573         135.554         135.535         135.516         135.499    
          135.483         135.468         135.454         135.441         135.429         135.418         135.407         135.397         135.387         135.378    
          135.369         135.361         135.353         135.345         135.337         133.527         133.530         133.534         133.541         133.549    
          133.559         133.569         133.580         133.592         133.605         133.619         133.634         133.650         133.667         133.685    
          133.706         133.729         133.754         133.782         133.813         133.846         133.882         133.921         133.963         134.008    
          134.058         134.114         134.163         134.194         134.160         134.187         134.231         134.260         134.222         134.256    
          134.316         134.400         134.490         134.587         134.688         134.784         134.873         134.957         135.035         135.106    
          135.171         135.230         135.285         135.335         135.380         135.420         135.456         135.487         135.512         135.533    
          135.548         135.559         135.564         135.563         135.558         135.548         135.535         135.521         135.505         135.491    
          135.476         135.463         135.451         135.439         135.428         135.417         135.407         135.397         135.387         135.377    
          135.367         135.359         135.351         135.344         135.337         135.330         135.323         133.526         133.529         133.534    
          133.541         133.550         133.560         133.571         133.582         133.595         133.609         133.624         133.639         133.655    
          133.673         133.692         133.713         133.736         133.761         133.788         133.818         133.850         133.885         133.922    
          133.963         134.006         134.054         134.107         134.165         134.215         134.249         134.212         134.239         134.286    
          134.317         134.275         134.311         134.374         134.461         134.556         134.656         134.752         134.839         134.922    
          134.998         135.067         135.130         135.187         135.240         135.289         135.332         135.371         135.406         135.435    
          135.460         135.480         135.496         135.506         135.512         135.514         135.511         135.505         135.496         135.486    
          135.475         135.463         135.452         135.441         135.431         135.421         135.412         135.402         135.393         135.384    
          135.375         135.365         135.356         135.348         135.340         135.334         135.328         135.322         135.317         135.312    
          133.526         133.528         133.534         133.541         133.550         133.560         133.572         133.585         133.598         133.612    
          133.628         133.644         133.661         133.679         133.698         133.719         133.742         133.766         133.793         133.822    
          133.854         133.888         133.924         133.963         134.005         134.051         134.101         134.155         134.215         134.268    
          134.302         134.263         134.291         134.341         134.373         134.329         134.366         134.433         134.525         134.623    
          134.718         134.804         134.885         134.959         135.027         135.088         135.144         135.195         135.242         135.285    
          135.323         135.356         135.384         135.409         135.429         135.444         135.455         135.462         135.465         135.465    
          135.462         135.457         135.451         135.443         135.435         135.427         135.419         135.411         135.402         135.394    
          135.386         135.378         135.370         135.360         135.351         135.343         135.336         135.329         135.324         135.319    
          135.314         135.310         135.308         133.526         133.528         133.534         133.541         133.551         133.561         133.573    
          133.587         133.601         133.615         133.631         133.648         133.665         133.683         133.703         133.724         133.747    
          133.771         133.798         133.826         133.857         133.891         133.926         133.964         134.004         134.048         134.096    
          134.147         134.204         134.265         134.320         134.356         134.315         134.344         134.397         134.431         134.384    
          134.423         134.495         134.591         134.685         134.771         134.849         134.921         134.987         135.047         135.102    
          135.152         135.197         135.239         135.275         135.308         135.336         135.359         135.379         135.395         135.407    
          135.415         135.419         135.421         135.421         135.420         135.416         135.412         135.407         135.401         135.395    
          135.389         135.383         135.376         135.369         135.362         135.354         135.345         135.337         135.330         135.324    
          135.318         135.314         135.309         135.306         135.303         135.302         133.526         133.529         133.534         133.542    
          133.552         133.563         133.575         133.588         133.603         133.618         133.635         133.651         133.669         133.687    
          133.707         133.728         133.751         133.775         133.801         133.830         133.860         133.893         133.928         133.965    
          134.004         134.047         134.092         134.142         134.195         134.253         134.317         134.374         134.412         134.366    
          134.404         134.470         134.560         134.653         134.738         134.815         134.884         134.949         135.008         135.061    
          135.110         135.155         135.195         135.230         135.262         135.289         135.313         135.333         135.349         135.361    
          135.371         135.377         135.381         135.383         135.384         135.383         135.381         135.379         135.375         135.371    
          135.367         135.362         135.357         135.351         135.344         135.336         135.329         135.322         135.316         135.311    
          135.307         135.304         135.300         135.298         135.296         135.295         133.527         133.530         133.535         133.543    
          133.553         133.564         133.577         133.590         133.605         133.621         133.637         133.654         133.672         133.691    
          133.710         133.731         133.754         133.778         133.805         133.833         133.863         133.895         133.929         133.966    
          134.004         134.046         134.090         134.138         134.189         134.244         134.304         134.358         134.394         134.352    
          134.387         134.447         134.532         134.621         134.706         134.782         134.850         134.913         134.971         135.023    
          135.072         135.115         135.154         135.188         135.219         135.246         135.269         135.289         135.306         135.319    
          135.330         135.338         135.344         135.348         135.350         135.352         135.352         135.351         135.350         135.347    
          135.345         135.341         135.336         135.331         135.325         135.319         135.313         135.308         135.303         135.300    
          135.297         135.294         135.292         135.290         135.288         135.288         133.528         133.531         133.537         133.545    
          133.554         133.566         133.578         133.592         133.607         133.622         133.639         133.657         133.674         133.693    
          133.713         133.734         133.756         133.781         133.807         133.835         133.865         133.897         133.931         133.967    
          134.005         134.046         134.089         134.135         134.185         134.238         134.295         134.345         134.378         134.342    
          134.369         134.416         134.447         134.405         134.441         134.506         134.592         134.675         134.751         134.818    
          134.880         134.937         134.988         135.035         135.077         135.115         135.149         135.179         135.205         135.229    
          135.249         135.266         135.280         135.292         135.302         135.309         135.314         135.318         135.321         135.324    
          135.325         135.325         135.324         135.322         135.319         135.316         135.312         135.308         135.303         135.298    
          135.295         135.292         135.289         135.287         135.285         135.283         135.282         135.281         135.281         133.528    
          133.533         133.539         133.547         133.557         133.567         133.580         133.593         133.608         133.624         133.641    
          133.658         133.676         133.695         133.715         133.736         133.758         133.783         133.809         133.837         133.867    
          133.898         133.932         133.967         134.005         134.046         134.088         134.134         134.182         134.233         134.287    
          134.346         134.396         134.431         134.390         134.424         134.483         134.563         134.644         134.720         134.788    
          134.849         134.905         134.955         135.001         135.042         135.079         135.112         135.142         135.168         135.191    
          135.211         135.229         135.244         135.257         135.268         135.276         135.283         135.289         135.293         135.297    
          135.299         135.301         135.302         135.301         135.299         135.297         135.294         135.292         135.289         135.286    
          135.283         135.281         135.280         135.278         135.277         135.276         135.275         135.274         135.274         133.536    
          133.542         133.550         133.559         133.570         133.582         133.595         133.609         133.625         133.641         133.659    
          133.677         133.696         133.716         133.737         133.760         133.784         133.810         133.838         133.868         133.899    
          133.932         133.968         134.005         134.045         134.087         134.132         134.178         134.228         134.279         134.334    
          134.382         134.414         134.376         134.407         134.462         134.537         134.615         134.690         134.759         134.820    
          134.876         134.925         134.968         135.008         135.044         135.077         135.107         135.133         135.156         135.177    
          135.195         135.212         135.225         135.237         135.246         135.255         135.261         135.267         135.272         135.276    
          135.279         135.281         135.282         135.282         135.281         135.280         135.279         135.277         135.276         135.274    
          135.273         135.271         135.270         135.269         135.268         135.267         135.267         135.267         133.547         133.554    
          133.563         133.573         133.584         133.597         133.611         133.626         133.642         133.659         133.677         133.696    
          133.716         133.738         133.761         133.785         133.811         133.839         133.868         133.899         133.932         133.967    
          134.004         134.044         134.085         134.129         134.174         134.222         134.272         134.314         134.337         134.308    
          134.334         134.368         134.398         134.362         134.392         134.442         134.512         134.587         134.663         134.732    
          134.793         134.848         134.897         134.939         134.978         135.013         135.028         134.999         135.014         135.046    
          135.058         135.031         135.047         135.074         135.101         135.124         135.146         135.165         135.182         135.196    
          135.209         135.220         135.229         135.237         135.244         135.250         135.255         135.259         135.262         135.264    
          135.266         135.267         135.268         135.268         135.267         135.267         135.266         135.265         135.264         135.263    
          135.262         135.261         135.261         135.260         135.260         133.559         133.567         133.576         133.587         133.599    
          133.612         133.626         133.642         133.659         133.677         133.696         133.716         133.738         133.761         133.785    
          133.811         133.839         133.868         133.899         133.932         133.966         134.003         134.041         134.082         134.125    
          134.169         134.215         134.263         134.303         134.328         134.300         134.322         134.356         134.384         134.351    
          134.375         134.415         134.440         134.406         134.435         134.490         134.563         134.638         134.706         134.768    
          134.822         134.870         134.912         134.948         134.964         134.936         134.952         134.983         135.000         134.969    
          134.986         135.016         135.032         135.002         135.018         135.047         135.057         135.033         135.046         135.071    
          135.095         135.117         135.137         135.154         135.170         135.184         135.196         135.206         135.215         135.223    
          135.230         135.236         135.241         135.245         135.248         135.251         135.253         135.255         135.256         135.257    
          135.258         135.258         135.257         135.257         135.256         135.255         135.255         135.254         135.254         135.254    
          133.573         133.581         133.590         133.601         133.613         133.627         133.643         133.659         133.677         133.696    
          133.716         133.737         133.760         133.785         133.811         133.839         133.868         133.898         133.930         133.964    
          134.000         134.038         134.077         134.119         134.162         134.207         134.254         134.302         134.354         134.399    
          134.428         134.395         134.420         134.463         134.492         134.455         134.483         134.532         134.564         134.523    
          134.554         134.606         134.637         134.595         134.626         134.675         134.702         134.665         134.692         134.737    
          134.763         134.726         134.752         134.794         134.816         134.783         134.805         134.843         134.861         134.831    
          134.850         134.885         134.901         134.873         134.890         134.922         134.939         134.911         134.926         134.956    
          134.973         134.944         134.961         134.989         135.004         134.977         134.992         135.019         135.032         135.006    
          135.021         135.045         135.069         135.091         135.111         135.129         135.146         135.160         135.173         135.185    
          135.195         135.204         135.212         135.219         135.225         135.229         135.233         135.237         135.240         135.242    
          135.244         135.246         135.248         135.249         135.249         135.249         135.249         135.248         135.248         135.247    
          135.247         135.247         133.586         133.594         133.604         133.616         133.629         133.643         133.659         133.676    
          133.695         133.715         133.736         133.759         133.783         133.810         133.837         133.866         133.896         133.928    
          133.961         133.996         134.033         134.071         134.112         134.154         134.197         134.243         134.291         134.341    
          134.397         134.458         134.526         134.596         134.663         134.725         134.779         134.825         134.866         134.903    
          134.933         134.949         134.926         134.939         134.965         134.980         134.955         134.968         134.994         135.008    
          134.982         134.996         135.021         135.031         135.009         135.021         135.044         135.067         135.087         135.106    
          135.123         135.138         135.152         135.164         135.176         135.186         135.195         135.203         135.209         135.215    
          135.219         135.223         135.226         135.229         135.232         135.235         135.237         135.239         135.240         135.241    
          135.241         135.241         135.241         135.240         135.240         135.240         133.600         133.609         133.619         133.631    
          133.645         133.660         133.676         133.694         133.713         133.735         133.757         133.782         133.808         133.835    
          133.863         133.893         133.924         133.956         133.990         134.027         134.064         134.103         134.143         134.186    
          134.231         134.278         134.329         134.384         134.444         134.511         134.580         134.646         134.707         134.761    
          134.807         134.847         134.884         134.917         134.947         134.972         134.985         134.963         134.976         134.998    
          135.009         134.989         135.000         135.022         135.044         135.065         135.084         135.101         135.117         135.132    
          135.144         135.156         135.167         135.177         135.186         135.194         135.201         135.206         135.210         135.213    
          135.217         135.220         135.223         135.226         135.229         135.231         135.232         135.233         135.233         135.234    
          135.234         135.234         135.233         133.615         133.624         133.635         133.647         133.661         133.676         133.693    
          133.712         133.733         133.755         133.779         133.805         133.832         133.860         133.889         133.920         133.951    
          133.984         134.019         134.055         134.093         134.132         134.173         134.217         134.264         134.315         134.370    
          134.430         134.496         134.565         134.631         134.691         134.745         134.792         134.832         134.868         134.901    
          134.927         134.939         134.920         134.932         134.953         134.965         134.945         134.957         134.979         135.002    
          135.024         135.045         135.064         135.082         135.098         135.112         135.125         135.137         135.148         135.159    
          135.170         135.179         135.186         135.192         135.197         135.201         135.204         135.208         135.212         135.216    
          135.219         135.221         135.223         135.225         135.226         135.226         135.226         135.227         135.227         133.630    
          133.639         133.650         133.663         133.677         133.693         133.711         133.731         133.753         133.777         133.802    
          133.828         133.856         133.885         133.914         133.945         133.977         134.011         134.046         134.082         134.120    
          134.159         134.201         134.249         134.300         134.355         134.415         134.481         134.550         134.616         134.677    
          134.730         134.777         134.819         134.855         134.887         134.911         134.924         134.906         134.916         134.936    
          134.947         134.928         134.940         134.961         134.984         135.005         135.026         135.046         135.064         135.080    
          135.094         135.107         135.119         135.130         135.141         135.151         135.162         135.170         135.178         135.183    
          135.188         135.193         135.197         135.201         135.205         135.209         135.212         135.214         135.216         135.217    
          135.218         135.219         135.219         135.220         133.645         133.655         133.666         133.679         133.694         133.711    
          133.730         133.751         133.774         133.799         133.825         133.852         133.880         133.909         133.939         133.970    
          134.002         134.035         134.070         134.107         134.145         134.186         134.231         134.283         134.338         134.397    
          134.464         134.533         134.600         134.662         134.716         134.763         134.806         134.843         134.874         134.900    
          134.920         134.931         134.914         134.925         134.945         134.967         134.988         135.009         135.029         135.047    
          135.063         135.078         135.091         135.102         135.113         135.123         135.133         135.144         135.154         135.162    
          135.170         135.176         135.181         135.185         135.190         135.194         135.198         135.202         135.205         135.207    
          135.209         135.211         135.212         135.212         135.212         133.661         133.671         133.682         133.696         133.712    
          133.729         133.749         133.772         133.796         133.821         133.847         133.875         133.903         133.932         133.962    
          133.993         134.025         134.058         134.093         134.130         134.171         134.215         134.264         134.319         134.378    
          134.443         134.514         134.584         134.646         134.700         134.747         134.791         134.831         134.861         134.886    
          134.906         134.917         134.900         134.911         134.929         134.950         134.972         134.993         135.013         135.032    
          135.049         135.063         135.076         135.087         135.098         135.108         135.118         135.128         135.138         135.148    
          135.156         135.163         135.169         135.174         135.179         135.184         135.188         135.192         135.196         135.199    
          135.201         135.203         135.204         135.205         135.205         133.677         133.687         133.699         133.713         133.730    
          133.749         133.770         133.793         133.817         133.843         133.870         133.897         133.926         133.954         133.984    
          134.015         134.046         134.080         134.116         134.155         134.198         134.247         134.300         134.357         134.422    
          134.493         134.564         134.627         134.680         134.730         134.776         134.815         134.847         134.871         134.892    
          134.902         134.884         134.895         134.914         134.934         134.956         134.977         134.998         135.017         135.035    
          135.050         135.063         135.074         135.085         135.095         135.105         135.115         135.125         135.134         135.143    
          135.150         135.157         135.163         135.169         135.174         135.179         135.183         135.187         135.190         135.193    
          135.195         135.197         135.198         135.198         133.694         133.704         133.717         133.732         133.749         133.769    
          133.791         133.814         133.839         133.865         133.892         133.920         133.948         133.976         134.006         134.036    
          134.068         134.103         134.141         134.183         134.230         134.282         134.339         134.402         134.471         134.541    
          134.604         134.658         134.711         134.757         134.795         134.828         134.853         134.874         134.885         134.866    
          134.877         134.897         134.919         134.941         134.963         134.984         135.003         135.021         135.037         135.051    
          135.063         135.073         135.084         135.093         135.103         135.113         135.122         135.131         135.139         135.147    
          135.151         135.142         135.146         135.154         135.157         135.149         135.152         135.160         135.163         135.156    
          135.158         135.166         135.168         135.161         135.164         135.171         135.173         135.167         135.169         135.176    
          135.177         135.171         135.173         135.180         135.181         135.175         135.177         135.183         135.185         135.179    
          135.181         135.186         135.187         135.183         135.184         135.187         135.189         135.191         135.191         133.711    
          133.722         133.736         133.751         133.769         133.790         133.812         133.836         133.861         133.888         133.914    
          133.942         133.969         133.998         134.027         134.058         134.092         134.130         134.171         134.217         134.268    
          134.324         134.386         134.451         134.518         134.580         134.632         134.686         134.733         134.773         134.805    
          134.832         134.854         134.865         134.845         134.856         134.879         134.903         134.927         134.950         134.971    
          134.991         135.009         135.026         135.040         135.052         135.063         135.074         135.084         135.093         135.102    
          135.107         135.098         135.103         135.112         135.116         135.108         135.112         135.121         135.125         135.117    
          135.120         135.130         135.133         135.125         135.128         135.137         135.140         135.133         135.136         135.144    
          135.150         135.156         135.161         135.166         135.171         135.174         135.168         135.170         135.176         135.177    
          135.172         135.174         135.179         135.180         135.175         135.177         135.182         135.182         135.178         135.180    
          135.182         135.184         135.185         133.730         133.741         133.755         133.771         133.790         133.811         133.834    
          133.858         133.884         133.910         133.937         133.964         133.991         134.020         134.050         134.084         134.121    
          134.162         134.208         134.258         134.314         134.374         134.435         134.496         134.555         134.608         134.661    
          134.709         134.748         134.782         134.808         134.820         134.798         134.810         134.833         134.844         134.824    
          134.834         134.859         134.887         134.913         134.937         134.960         134.981         135.000         135.017         135.031    
          135.043         135.055         135.066         135.075         135.080         135.072         135.076         135.085         135.089         135.082    
          135.086         135.094         135.098         135.091         135.095         135.103         135.112         135.120         135.128         135.135    
          135.142         135.148         135.154         135.159         135.164         135.168         135.171         135.175         135.176         135.172    
          135.173         135.177         135.178         135.174         135.175         135.178         135.180         133.749         133.760         133.774    
          133.791         133.811         133.832         133.855         133.880         133.906         133.932         133.959         133.986         134.014    
          134.044         134.078         134.115         134.156         134.201         134.252         134.308         134.366         134.423         134.478    
          134.533         134.587         134.637         134.684         134.725         134.760         134.786         134.798         134.778         134.790    
          134.813         134.839         134.870         134.900         134.926         134.950         134.971         134.991         135.008         135.023    
          135.036         135.048         135.058         135.063         135.055         135.060         135.068         135.073         135.066         135.070    
          135.079         135.088         135.097         135.105         135.113         135.121         135.128         135.135         135.141         135.147    
          135.152         135.157         135.161         135.165         135.168         135.171         135.172         135.169         135.169         135.173    
          135.174         135.170         135.171         135.174         135.171         133.768         133.780         133.794         133.812         133.832    
          133.854         133.877         133.903         133.928         133.955         133.982         134.009         134.040         134.073         134.110    
          134.152         134.198         134.249         134.303         134.358         134.414         134.467         134.519         134.568         134.616    
          134.661         134.702         134.738         134.766         134.780         134.758         134.769         134.793         134.803         134.783    
          134.796         134.822         134.853         134.885         134.914         134.939         134.962         134.983         135.000         135.015    
          135.029         135.041         135.052         135.057         135.049         135.054         135.063         135.074         135.083         135.091    
          135.099         135.107         135.115         135.122         135.128         135.135         135.140         135.146         135.151         135.155    
          135.159         135.162         135.165         135.167         135.167         133.787         133.799         133.814         133.832         133.853    
          133.876         133.900         133.925         133.952         133.978         134.006         134.037         134.070         134.107         134.149    
          134.195         134.245         134.298         134.352         134.405         134.456         134.506         134.553         134.598         134.641    
          134.681         134.717         134.749         134.773         134.787         134.767         134.780         134.806         134.840         134.872    
          134.902         134.929         134.953         134.974         134.992         135.008         135.022         135.034         135.039         135.031    
          135.037         135.046         135.051         135.043         135.049         135.058         135.069         135.078         135.087         135.095    
          135.102         135.110         135.117         135.123         135.129         135.135         135.141         135.146         135.150         135.154    
          135.158         135.161         135.163         135.164         133.806         133.819         133.835         133.854         133.875         133.899    
          133.924         133.949         133.976         134.005         134.035         134.068         134.105         134.146         134.192         134.241    
          134.293         134.345         134.396         134.446         134.493         134.539         134.581         134.622         134.661         134.697    
          134.731         134.758         134.773         134.753         134.765         134.789         134.803         134.782         134.799         134.827    
          134.861         134.892         134.920         134.944         134.964         134.973         134.960         134.969         134.983         134.990    
          134.980         134.987         135.000         135.006         134.997         135.003         135.015         135.020         135.012         135.018    
          135.028         135.034         135.025         135.031         135.042         135.053         135.064         135.074         135.083         135.090    
          135.098         135.105         135.112         135.118         135.125         135.130         135.136         135.141         135.146         135.151    
          135.155         135.158         135.161         135.163         133.826         133.840         133.856         133.877         133.899         133.923    
          133.949         133.976         134.004         134.034         134.067         134.103         134.145         134.189         134.237         134.287    
          134.338         134.387         134.435         134.480         134.524         134.565         134.604         134.642         134.678         134.714    
          134.748         134.776         134.794         134.773         134.787         134.812         134.826         134.806         134.823         134.851    
          134.883         134.908         134.920         134.903         134.917         134.934         134.944         134.931         134.940         134.955    
          134.965         134.953         134.962         134.978         134.996         135.011         135.025         135.038         135.049         135.060    
          135.070         135.079         135.087         135.094         135.102         135.108         135.115         135.121         135.126         135.132    
          135.138         135.143         135.147         135.152         135.155         133.847         133.862         133.881         133.902         133.926    
          133.951         133.977         134.005         134.035         134.068         134.103         134.143         134.186         134.233         134.282    
          134.331         134.378         134.423         134.467         134.509         134.549         134.587         134.625         134.661         134.697    
          134.734         134.772         134.801         134.819         134.798         134.813         134.838         134.852         134.833         134.848    
          134.870         134.883         134.866         134.880         134.899         134.912         134.897         134.909         134.931         134.953    
          134.973         134.991         135.007         135.021         135.034         135.046         135.057         135.067         135.076         135.084    
          135.091         135.098         135.105         135.111         135.117         135.123         135.129         135.134         135.140         135.144    
          133.871         133.888         133.908         133.930         133.955         133.981         134.009         134.038         134.069         134.104    
          134.141         134.183         134.229         134.276         134.323         134.367         134.410         134.453         134.494         134.534    
          134.572         134.609         134.645         134.682         134.721         134.761         134.798         134.834         134.868         134.899    
          134.926         134.949         134.970         134.988         135.003         135.018         135.031         135.043         135.055         135.065    
          135.074         135.082         135.089         135.096         135.102         135.108         135.114         135.120         135.126         135.130    
          133.898         133.916         133.938         133.962         133.988         134.014         134.042         134.072         134.105         134.141    
          134.181         134.224         134.270         134.314         134.356         134.397         134.438         134.477         134.517         134.556    
          134.594         134.632         134.670         134.710         134.751         134.790         134.828         134.864         134.896         134.923    
          134.947         134.967         134.985         135.001         135.016         135.029         135.040         135.052         135.063         135.072    
          135.080         135.087         135.093         135.099         135.106         135.112         135.116         133.928         133.949         133.972    
          133.997         134.022         134.048         134.077         134.108         134.142         134.179         134.220         134.262         134.304    
          134.344         134.383         134.422         134.460         134.500         134.542         134.582         134.620         134.660         134.702    
          134.744         134.784         134.824         134.861         134.894         134.922         134.945         134.966         134.984         135.000    
          135.014         135.027         135.038         135.048         135.061         135.071         135.079         135.085         135.091         135.095    
          133.964         133.986         134.008         134.031         134.056         134.082         134.111         134.143         134.178         134.216    
          134.255         134.294         134.331         134.368         134.405         134.443         134.481         134.531         134.574         134.613    
          134.653         134.697         134.739         134.780         134.822         134.861         134.894         134.922         134.945         134.965    
          134.983         134.999         135.013         135.025         135.035         135.042         134.002         134.021         134.042         134.063    
          134.088         134.115         134.145         134.178         134.213         134.248         134.284         134.318         134.353         134.387    
          134.428         134.454         134.036         134.052         134.071         134.093         134.119         134.147         134.178         134.210    
          134.242         134.274         134.304         134.340         134.364         134.064         134.075         134.096         134.121         134.148    
          134.178         134.209         134.239         134.265         134.284    

 HEAD WILL BE SAVED ON UNIT 1021 AT END OF TIME STEP    1, STRESS PERIOD    2

 SFR PACKAGE (SFR) STAGES FOR EACH CONTROL VOLUME   PERIOD      2   STEP        1
 -------------------------------------------------------------------------------------------------------------
                                                                                      STREAMBED    STREAMBED  
   NUMBER   CELLID                  STAGE        DEPTH        WIDTH       GWF HEAD   CONDUCTANCE    GRADIENT  
 -------------------------------------------------------------------------------------------------------------
     1      (2,2565)              143.61       0.0000       0.0000       135.17       1016.1       1.0000     
     2      (2,2563)              143.50       0.0000       0.0000       135.17       319.68       1.0000     
     3      (2,2561)              143.45       0.0000       0.0000       135.17       615.17       1.0000     
     4      (2,2560)              143.45       0.0000       0.0000       135.17       955.58       1.0000     
     5      (2,2557)              143.45       0.0000       0.0000       135.17       490.75       1.0000     
     6      (2,2485)              143.45       0.0000       0.0000       135.17       478.66       1.0000     
     7      (2,2484)              143.42       0.0000       0.0000       135.17       1093.8       1.0000     
     8      (2,2481)              143.33       0.0000       0.0000       135.17       60.480       1.0000     
     9      (2,2479)              143.33       0.0000       0.0000       135.18       862.27       1.0000     
     10     (2,2478)              143.33       0.0000       0.0000       135.17       978.05       1.0000     
     11     (2,2399)              143.33       0.0000       0.0000       135.18       371.52       1.0000     
     12     (2,2396)              143.33       0.0000       0.0000       135.18       584.06       1.0000     
     13     (2,2394)              143.28       0.0000       0.0000       135.18       998.78       1.0000     
     14     (2,2393)              143.25       0.0000       0.0000       135.18       98.496       1.0000     
     15     (2,2304)              143.14       0.0000       0.0000       135.18       917.57       1.0000     
     16     (2,2301)              143.14       0.0000       0.0000       135.18       910.66       1.0000     
     17     (2,2300)              143.14       0.0000       0.0000       135.18       65.664       1.0000     
     18     (2,2389)              143.14       0.0000       0.0000       135.18       812.16       1.0000     
     19     (2,2386)              143.07       0.0000       0.0000       135.17       870.91       1.0000     
     20     (2,2385)              143.07       0.0000       0.0000       135.17       278.21       1.0000     
     21     (2,2296)              143.07       0.0000       0.0000       135.18       603.07       1.0000     
     22     (2,2293)              143.07       0.0000       0.0000       135.17       893.38       1.0000     
     23     (2,2292)              143.07       0.0000       0.0000       135.17       884.74       1.0000     
     24     (2,2289)              143.07       0.0000       0.0000       135.17       910.66       1.0000     
     25     (2,2288)              143.07       0.0000       0.0000       135.17       153.79       1.0000     
     26     (2,2286)              143.03       0.0000       0.0000       135.17       781.06       1.0000     
     27     (2,2283)              143.03       0.0000       0.0000       135.17       889.92       1.0000     
     28     (2,2282)              143.03       0.0000       0.0000       135.17       877.82       1.0000     
     29     (2,2279)              143.03       0.0000       0.0000       135.16       884.74       1.0000     
     30     (2,2278)              143.03       0.0000       0.0000       135.16       896.83       1.0000     
     31     (2,2275)              143.03       0.0000       0.0000       135.16       172.80       1.0000     
     32     (2,2277)              143.03       0.0000       0.0000       135.15       730.94       1.0000     
     33     (2,2276)              143.03       0.0000       0.0000       135.15       908.93       1.0000     
     34     (2,2273)              143.03       0.0000       0.0000       135.15       891.65       1.0000     
     35     (2,2272)              143.03       0.0000       0.0000       135.14       454.46       1.0000     
     36     (2,2376)              143.03       0.0000       0.0000       135.14       442.37       1.0000     
     37     (2,2373)              143.03       0.0000       0.0000       135.13       881.28       1.0000     
     38     (2,2372)              143.03       0.0000       0.0000       135.13       881.28       1.0000     
     39     (2,2369)              143.01       0.0000       0.0000       135.12       902.02       1.0000     
     40     (2,2368)              142.55       0.0000       0.0000       135.12       806.98       1.0000     
     41     (2,2370)              142.55       0.0000       0.0000       135.11       82.944       1.0000     
     42     (2,2367)              142.05       0.0000       0.0000       135.11       902.02       1.0000     
     43     (2,2366)              141.75       0.0000       0.0000       135.10       898.56       1.0000     
     44     (2,2363)              141.22       0.0000       0.0000       135.10       876.10       1.0000     
     45     (2,2362)              140.98       0.0000       0.0000       135.09       926.21       1.0000     
     46     (2,2462)              140.62       0.0000       0.0000       135.09       5.1840       1.0000     
     47     (1,2459)              140.43       0.0000       0.0000       135.08       1069.6       1.0000     
     48     (1,2458)              140.43       0.0000       0.0000       135.08       362.88       1.0000     
     49     (1,2460)              140.05       0.0000       0.0000       135.07       713.66       1.0000     
     50     (1,2457)              140.05       0.0000       0.0000       135.07       705.02       1.0000     
     51     (1,2538)              139.72       0.0000       0.0000       135.06       412.99       1.0000     
     52     (1,2537)              139.72       0.0000       0.0000       135.06       983.23       1.0000     
     53     (1,2539)              139.56       0.0000       0.0000       135.06       190.08       1.0000     
     54     (1,2536)              139.54       0.0000       0.0000       135.05       886.46       1.0000     
     55     (1,2614)              139.39       0.0000       0.0000       135.05       635.90       1.0000     
     56     (1,2613)              139.36       0.0000       0.0000       135.04       435.46       1.0000     
     57     (1,2615)              139.20       0.0000       0.0000       135.04       955.58       1.0000     
     58     (1,2682)              139.02       0.0000       0.0000       135.04       884.74       1.0000     
     59     (1,2684)              138.96       0.0000       0.0000       135.04       539.14       1.0000     
     60     (1,2681)              138.89       0.0000       0.0000       135.03       447.55       1.0000     
     61     (1,2762)              138.89       0.0000       0.0000       135.03       857.09       1.0000     
     62     (1,2761)              138.84       0.0000       0.0000       135.02       364.61       1.0000     
     63     (1,2763)              138.84       0.0000       0.0000       135.02       627.26       1.0000     
     64     (1,2760)              138.65       0.0000       0.0000       135.01       978.05       1.0000     
     65     (1,2759)              138.58       0.0000       0.0000       135.01       883.01       1.0000     
     66     (1,2756)              138.49       0.0000       0.0000       135.00       903.74       1.0000     
     67     (1,2755)              138.33       0.0000       0.0000       134.99       896.83       1.0000     
     68     (1,2752)              138.33       0.0000       0.0000       134.98       910.66       1.0000     
     69     (1,2751)              138.33       0.0000       0.0000       134.98       926.21       1.0000     
     70     (1,2748)              138.33       0.0000       0.0000       134.97       38.016       1.0000     
     71     (1,2831)              138.33       0.0000       0.0000       134.96       926.21       1.0000     
     72     (1,2830)              138.33       0.0000       0.0000       134.95       927.94       1.0000     
     73     (1,2827)              138.33       0.0000       0.0000       134.94       336.96       1.0000     
     74     (1,2829)              138.33       0.0000       0.0000       134.94       585.79       1.0000     
     75     (1,2828)              138.33       0.0000       0.0000       134.93       910.66       1.0000     
     76     (1,2825)              138.33       0.0000       0.0000       134.92       910.66       1.0000     
     77     (1,2824)              138.33       0.0000       0.0000       134.91       321.41       1.0000     
     78     (1,2895)              138.33       0.0000       0.0000       134.90       589.25       1.0000     
     79     (1,2892)              138.33       0.0000       0.0000       134.88       900.29       1.0000     
     80     (1,2891)              138.33       0.0000       0.0000       134.88       927.94       1.0000     
     81     (1,2888)              138.33       0.0000       0.0000       134.85       872.64       1.0000     
     82     (2,2887)              138.33       0.0000       0.0000       134.84       1164.7       1.0000     
     83     (1,2884)              138.33       0.0000       0.0000       134.82       190.08       1.0000     
     84     (1,2819)              138.33       0.0000       0.0000       134.83       1031.6       1.0000     
     85     (1,2818)              138.24       0.0000       0.0000       134.82       190.08       1.0000     
     86     (1,2816)              138.24       0.0000       0.0000       134.83       1031.6       1.0000     
     87     (1,2813)              137.98       0.0000       0.0000       134.81       190.08       1.0000     
     88     (1,2739)              137.98       0.0000       0.0000       134.82       1031.6       1.0000     
     89     (1,2738)              137.56       0.0000       0.0000       134.80       190.08       1.0000     
     90     (1,2736)              137.56       0.0000       0.0000       134.81       1031.6       1.0000     
     91     (1,2733)              137.21       0.0000       0.0000       134.80       190.08       1.0000     
     92     (1,2667)              137.21       0.0000       0.0000       134.80       1031.6       1.0000     
     93     (1,2666)              137.20       0.0000       0.0000       134.79       190.08       1.0000     
     94     (1,2664)              137.11       0.0000       0.0000       134.80       1099.0       1.0000     
     95     (1,2600)              136.90       0.0000       0.0000       134.80       421.63       1.0000     
     96     (1,2597)              136.63       0.0000       0.0000       134.79       644.54       1.0000     
     97     (1,2595)              136.63       0.0000       0.0000       134.80       981.50       1.0000     
     98     (1,2520)              136.63       0.0000       0.0000       134.81       297.22       1.0000     
     99     (1,2519)              136.63       0.0000       0.0000       134.80       803.52       1.0000     
    100     (1,2517)              136.63       0.0000       0.0000       134.80       983.23       1.0000     
    101     (1,2436)              136.63       0.0000       0.0000       134.81       1054.1       1.0000     
    102     (1,2434)              136.63       0.0000       0.0000       134.82       632.45       1.0000     
    103     (1,2435)              136.63       0.0000       0.0000       134.83       1263.2       1.0000     
    104     (1,2438)              136.63       0.0000       0.0000       134.84       336.96       1.0000     
    105     (1,2344)              136.63       0.0000       0.0000       134.85       910.66       1.0000     
    106     (1,2342)              136.63       0.0000       0.0000       134.85       615.17       1.0000     
    107     (1,2343)              136.63       0.0000       0.0000       134.86       457.92       1.0000     
    108     (1,2251)              136.60       0.0000       0.0000       134.87       1016.1       1.0000     
    109     (1,2249)              136.49       0.0000       0.0000       134.88       864.00       1.0000     
    110     (1,2183)              136.36       0.0000       0.0000       134.89       934.85       1.0000     
    111     (1,2181)              136.30       0.0000       0.0000       134.89       864.00       1.0000     
    112     (1,2114)              136.30       0.0000       0.0000       134.90       872.64       1.0000     
    113     (1,2112)              136.30       0.0000       0.0000       134.91       867.46       1.0000     
    114     (1,2044)              136.30       0.0000       0.0000       134.92       430.27       1.0000     
    115     (1,2043)              136.30       0.0000       0.0000       134.91       546.05       1.0000     
    116     (1,2041)              136.28       0.0000       0.0000       134.91       1021.2       1.0000     
    117     (1,1972)              136.28       0.0000       0.0000       134.92       148.61       1.0000     
    118     (1,1969)              136.05       0.0000       0.0000       134.91       943.49       1.0000     
    119     (1,1967)              136.05       0.0000       0.0000       134.91       508.03       1.0000     
    120     (1,1966)              135.98       0.0000       0.0000       134.90       565.06       1.0000     
    121     (1,1893)              135.90       0.0000       0.0000       134.91       855.36       0.98943    
    122     (1,1894)              135.90       0.0000       0.0000       134.92       200.45       0.97794    
    123     (1,1892)              135.90       0.0000       0.0000       134.93       888.19       0.97109    
    124     (1,1895)              135.89       0.0000       0.0000       134.94       888.19       0.94787    
    125     (1,1896)              135.89       0.0000       0.0000       134.95       739.58       0.93615    
    126     (1,1819)              135.89       0.0000       0.0000       134.96       205.63       0.92686    
    127     (1,1822)              135.88       0.0000       0.0000       134.98       924.48       0.90430    
    128     (1,1820)              135.64       0.0000       0.0000       134.98       907.20       0.65628    
    129     (1,1745)              135.64       0.0000       0.0000       134.99       1152.6       0.64668    
    130     (1,1742)              135.56       0.0000       0.0000       134.98       888.19       0.57887    
    131     (1,1741)              135.56       0.0000       0.0000       134.97       926.21       0.59157    
    132     (1,1738)              135.47       0.0000       0.0000       134.96       910.66       0.51482    
    133     (1,1737)              135.47       0.0000       0.0000       134.94       433.73       0.52604    
    134     (1,1735)              135.44       0.0000       0.0000       134.95       860.54       0.48728    
    135     (1,1732)              135.44       0.0000       0.0000       134.94       229.82       0.50171    
    136     (1,1653)              135.38       0.0000       0.0000       134.95       993.60       0.43180    
    137     (1,1651)              135.36       0.0000       0.0000       134.96       1054.1       0.40125    
    138     (1,1654)              135.36       0.0000       0.0000       134.97       870.91       0.38686    
    139     (1,1655)              135.32       0.0000       0.0000       134.99       974.59       0.33342    
    140     (1,1658)              135.32       0.0000       0.0000       135.00       273.02       0.32062    
    141     (1,1548)              135.32       0.0000       0.0000       135.01       903.74       0.30891    
    142     (1,1546)              135.32       0.0000       0.0000       135.02       571.97       0.29620    
    143     (1,1543)              135.32       0.0000       0.0000       135.01       746.50       0.30993    
    144     (1,1453)              135.32       0.0000       0.0000       135.02       342.14       0.29697    
    145     (1,1452)              135.32       0.0000       0.0000       135.01       914.11       0.31104    
    146     (1,1449)              135.32       0.0000       0.0000       134.99       914.11       0.32585    
    147     (1,1448)              135.32       0.0000       0.0000       134.98       302.40       0.34017    
    148     (1,1538)              135.28       0.0000       0.0000       134.97       668.74       0.31373    
    149     (1,1535)              135.28       0.0000       0.0000       134.95       969.41       0.33123    
    150     (1,1537)              135.26       0.0000       0.0000       134.94       955.58       0.32161    
    151     (1,1647)              135.26       0.0000       0.0000       134.93       910.66       0.33279    
    152     (1,1649)              135.26       0.0000       0.0000       134.92       931.39       0.34401    
    153     (1,1648)              135.26       0.0000       0.0000       134.90       896.83       0.35854    
    154     (1,1645)              135.21       0.0000       0.0000       134.88       940.03       0.32851    
    155     (1,1644)              135.13       0.0000       0.0000       134.87       648.00       0.26446    
    156     (1,1642)              135.06       0.0000       0.0000       134.88       421.63       0.18462    
    157     (1,1639)              135.06       0.0000       0.0000       134.85       933.12       0.20730    
    158     (1,1638)              135.06       0.0000       0.0000       134.83       400.90       0.22506    
    159     (1,1640)              135.06       0.0000       0.0000       134.83       587.52       0.23467    
    160     (1,1637)              135.06       0.0000       0.0000       134.80       910.66       0.26002    
    161     (1,1636)              135.06       0.0000       0.0000       134.78       872.64       0.28023    
    162     (1,1633)              135.06       0.0000       0.0000       134.75       865.73       0.30836    
    163     (1,1632)              135.05       0.0000       0.0000       134.73       870.91       0.32040    
    164     (1,1629)              135.05       0.0000       0.0000       134.70       874.37       0.35208    
    165     (1,1628)              135.05       0.0000       0.0000       134.67       865.73       0.37739    
    166     (1,1625)              135.00       0.0000       0.0000       134.64       870.91       0.36174    
    167     (1,1624)              134.97       0.0000       0.0000       134.61       879.55       0.35807    
    168     (1,1621)              134.97       0.0000       0.0000       134.58       881.28       0.39364    
    169     (1,1620)              134.97       0.0000       0.0000       134.55       900.29       0.42063    
    170     (1,1617)              134.97       0.0000       0.0000       134.51       487.30       0.45632    
    171     (1,1615)              134.90       0.0000       0.0000       134.52       461.38       0.37960    
    172     (1,1614)              134.90       0.0000       0.0000       134.49       946.94       0.40577    
    173     (1,1611)              134.90       0.0000       0.0000       134.46       589.25       0.44118    
    174     (1,1525)              134.89       0.0000       0.0000       134.46       406.08       0.42695    
    175     (1,1524)              134.77       0.0000       0.0000       134.43       965.95       0.34059    
    176     (1,1521)              134.77       0.0000       0.0000       134.39       577.15       0.37638    
    177     (1,1519)              134.77       0.0000       0.0000       134.40       428.54       0.36963    
    178     (1,1518)              134.77       0.0000       0.0000       134.37       905.47       0.40250    
    179     (1,1515)              134.77       0.0000       0.0000       134.33       539.14       0.43507    
    180     (1,1431)              134.77       0.0000       0.0000       134.34       864.00       0.43273    
    181     (1,1429)              134.77       0.0000       0.0000       134.34       774.14       0.43346    
    182     (1,1432)              134.73       0.0000       0.0000       134.37       502.85       0.35848    
    183     (1,1353)              134.72       0.0000       0.0000       134.37       907.20       0.34678    
    184     (1,1351)              134.72       0.0000       0.0000       134.37       883.01       0.34728    
    185     (1,1274)              134.72       0.0000       0.0000       134.37       902.02       0.35112    
    186     (1,1272)              134.71       0.0000       0.0000       134.36       900.29       0.34774    
    187     (1,1194)              134.38       0.0000       0.0000       134.35       927.94       3.36908E-02
    188     (1,1192)              134.27       4.12856E-03  2.0000       134.32       853.63      -4.53433E-02
    189     (1,1189)              134.28       6.29775E-03  2.0000       134.28       122.69      -6.74008E-03
    190     (1,1111)              134.18       8.95861E-03  2.0000       134.24       991.87      -6.22121E-02
    191     (1,1109)              134.18       1.24427E-02  2.0000       134.25       628.99      -6.50474E-02
    192     (1,1108)              134.18       1.40760E-02  2.0000       134.22       361.15      -4.05154E-02
    193     (1,1030)              134.19       1.53597E-02  2.0000       134.22       979.78      -3.28376E-02
    194     (1,1028)              134.19       1.70427E-02  2.0000       134.22       889.92      -3.73575E-02
    195     (1,950)               134.19       1.80893E-02  2.0000       134.24       186.62      -5.19521E-02
    196     (1,947)               134.09       1.97330E-02  2.0000       134.16       813.89      -7.51136E-02
    197     (1,945)               134.09       2.21202E-02  2.0000       134.18       546.05      -8.95926E-02
    198     (1,944)               134.09       2.40224E-02  2.0000       134.15       848.45      -5.26490E-02
    199     (1,866)               134.10       2.54146E-02  2.0000       134.17       354.24      -7.63817E-02
    200     (1,863)               134.10       2.65456E-02  2.0000       134.14       803.52      -4.12881E-02
    201     (1,861)               134.10       2.77846E-02  2.0000       134.16       608.26      -5.72225E-02
    202     (1,860)               134.10       2.87105E-02  2.0000       134.13       521.86      -3.32186E-02
    203     (1,782)               134.10       2.96124E-02  2.0000       134.14       822.53      -4.19919E-02
    204     (1,779)               134.09       3.03361E-02  2.0000       134.12       252.29      -3.11639E-02
    205     (1,777)               134.09       3.11121E-02  2.0000       134.13       1130.1      -3.39409E-02
    206     (1,700)               134.09       3.17590E-02  2.0000       134.15       12.096      -6.30130E-02
    207     (1,699)               134.09       3.21634E-02  2.0000       134.11       1138.8      -2.10481E-02
    208     (1,697)               134.09       3.26608E-02  2.0000       134.13       169.34      -3.97285E-02
    209     (1,694)               134.09       3.27938E-02  2.0000       134.09       927.94      -1.65335E-03
    210     (1,618)               134.02       3.33054E-02  2.0000       134.09       483.84      -6.29537E-02
    211     (1,617)               134.02       3.40614E-02  2.0000       134.05       578.88      -3.00764E-02
    212     (1,615)               134.02       3.47420E-02  2.0000       134.06       855.36      -3.07513E-02
    213     (1,612)               134.03       3.51608E-02  2.0000       134.03       361.15      -2.43309E-03
    214     (1,537)               134.03       3.50631E-02  2.0000       134.02       936.58       7.73034E-03
    215     (1,535)               133.86       3.60814E-02  2.0000       133.97       627.26      -0.11815    
    216     (1,534)               133.86       3.83547E-02  2.0000       133.94       976.32      -8.16863E-02
    217     (1,531)               133.86       3.95163E-02  2.0000       133.94       15.552      -8.11128E-02
    218     (1,457)               133.86       4.03863E-02  2.0000       133.92       1042.0      -5.80345E-02
    219     (1,455)               133.86       4.20449E-02  2.0000       133.92       1024.7      -5.82463E-02
    220     (1,382)               133.86       4.33158E-02  2.0000       133.95       388.80      -8.88769E-02
    221     (1,381)               133.86       4.44167E-02  2.0000       133.92       927.94      -5.23534E-02
    222     (1,378)               133.87       4.54754E-02  2.0000       133.90       889.92      -3.67212E-02
    223     (1,377)               133.87       4.62321E-02  2.0000       133.89       919.30      -2.84736E-02
    224     (1,375)               133.87       4.66674E-02  2.0000       133.92       160.70      -4.96667E-02
    225     (1,372)               133.87       4.71015E-02  2.0000       133.89       1038.5      -2.53115E-02
    226     (1,371)               133.87       4.74994E-02  2.0000       133.88       326.59      -1.62639E-02
    227     (1,299)               133.87       4.77728E-02  2.0000       133.89       701.57      -2.35168E-02
    228     (1,296)               133.87       4.80700E-02  2.0000       133.88       907.20      -8.05497E-03
    229     (1,294)               133.87       4.81906E-02  2.0000       133.89       119.23      -1.99690E-02
    230     (1,293)               133.87       4.82757E-02  2.0000       133.87       921.02      -4.85210E-03
    231     (1,290)               133.87       4.82106E-02  2.0000       133.86       884.74       1.09737E-02
    232     (1,289)               133.87       4.78228E-02  2.0000       133.84       908.93       2.35431E-02
    233     (1,286)               133.87       4.74736E-02  2.0000       133.81       114.05       5.66751E-02
    234     (1,250)               133.87       4.69062E-02  2.0000       133.82       789.70       4.87799E-02
    235     (1,249)               133.87       4.53700E-02  2.0000       133.78       979.78       8.31435E-02
    236     (1,246)               133.63       4.44777E-02  2.0000       133.67       387.07      -3.35751E-02
    237     (1,244)               133.56       4.51338E-02  2.0000       133.61       644.54      -5.78008E-02
    238     (1,243)               133.33       4.73808E-02  2.0000       133.50       786.24      -0.17622    
    239     (1,209)               133.33       4.99414E-02  2.0000       133.50       402.62      -0.17055    
    240     (1,206)               133.33       5.19246E-02  2.0000       133.45       819.07      -0.11815    
    241     (1,204)               133.33       5.36873E-02  2.0000       133.47       402.62      -0.13379    
    242     (1,203)               133.34       5.52236E-02  2.0000       133.43       819.07      -9.78444E-02
    243     (1,171)               133.34       5.66479E-02  2.0000       133.45       399.17      -0.11610    
    244     (1,168)               133.34       5.80889E-02  2.0000       133.42       1017.8      -8.23328E-02
    245     (1,166)               133.34       5.90826E-02  2.0000       133.47       57.024      -0.12636    
    246     (1,165)               133.34       6.01097E-02  2.0000       133.42       1164.7      -7.55127E-02
    247     (1,135)               133.34       6.11221E-02  2.0000       133.46       57.024      -0.12095    
    248     (1,132)               133.34       6.20635E-02  2.0000       133.41       1164.7      -7.06198E-02
    249     (1,130)               133.34       6.29929E-02  2.0000       133.46       57.024      -0.11658    
    250     (1,129)               133.34       6.38742E-02  2.0000       133.41       1164.7      -6.73661E-02
    251     (1,101)               133.34       6.47452E-02  2.0000       133.46       57.024      -0.11279    
    252     (1,98)                133.35       6.55808E-02  2.0000       133.41       1164.7      -6.50162E-02
    253     (1,96)                133.35       6.64079E-02  2.0000       133.46       57.024      -0.11026    
    254     (1,95)                133.35       6.72030E-02  2.0000       133.41       1164.7      -6.28416E-02
    255     (1,69)                133.35       6.79903E-02  2.0000       133.46       57.024      -0.10750    
    256     (1,66)                133.35       6.87434E-02  2.0000       133.41       1178.5      -5.96725E-02
    257     (1,65)                133.35       6.94660E-02  2.0000       133.42       48.384      -7.35162E-02
    258     (1,63)                133.34       7.01515E-02  2.0000       133.40       1061.0      -6.31526E-02
    259     (1,60)                133.34       7.09570E-02  2.0000       133.40       288.58      -5.72000E-02
    260     (1,36)                133.22       7.22849E-02  2.0000       133.35       934.85      -0.13107    
    261     (1,35)                133.22       7.39275E-02  2.0000       133.37       357.70      -0.14492    
    262     (1,33)                133.23       7.53384E-02  2.0000       133.37       708.48      -0.14116    
    263     (1,30)                133.23       7.71050E-02  2.0000       133.37       634.18      -0.14635    
    264     (1,8)                 133.23       7.89427E-02  2.0000       133.42       589.25      -0.18824    
    265     (1,7)                 133.23       8.10955E-02  2.0000       133.44       634.18      -0.20782    
    266     (1,5)                 133.23       8.24502E-02  2.0000       133.57       69.120      -0.33511    
 -------------------------------------------------------------------------------------------------------------




  SFR BUDGET FOR ENTIRE MODEL AT END OF TIME STEP    1, STRESS PERIOD   2
  ------------------------------------------------------------------------------

     CUMULATIVE SFR      L**3       RATES FOR THIS TIME STEP      L**3/T
     ------------------                 ------------------------

           IN:                                      IN:
           ---                                      ---
                 GWF =       94920.2701                   GWF =        3021.3323
            RAINFALL =           0.0000              RAINFALL =           0.0000
         EVAPORATION =           0.0000           EVAPORATION =           0.0000
              RUNOFF =           0.0000                RUNOFF =           0.0000
          EXT-INFLOW =           0.0000            EXT-INFLOW =           0.0000
         EXT-OUTFLOW =           0.0000           EXT-OUTFLOW =           0.0000
             STORAGE =           0.0000               STORAGE =           0.0000

            TOTAL IN =       94920.2701              TOTAL IN =        3021.3323

          OUT:                                     OUT:
          ----                                     ----
                 GWF =        5177.3137                   GWF =         164.7953
            RAINFALL =           0.0000              RAINFALL =           0.0000
         EVAPORATION =           0.0000           EVAPORATION =           0.0000
              RUNOFF =           0.0000                RUNOFF =           0.0000
          EXT-INFLOW =           0.0000            EXT-INFLOW =           0.0000
         EXT-OUTFLOW =       89742.9563           EXT-OUTFLOW =        2856.5370
             STORAGE =           0.0000               STORAGE =           0.0000

           TOTAL OUT =       94920.2701             TOTAL OUT =        3021.3323

            IN - OUT =           0.0000              IN - OUT =           0.0000

 PERCENT DISCREPANCY =           0.00     PERCENT DISCREPANCY =           0.00




         TIME SUMMARY AT END OF TIME STEP    1 IN STRESS PERIOD    2
                    SECONDS     MINUTES      HOURS       DAYS        YEARS
                    -----------------------------------------------------------
   TIME STEP LENGTH 2.62800E+06  43800.      730.00      30.417     8.32763E-02
 STRESS PERIOD TIME 2.62800E+06  43800.      730.00      30.417     8.32763E-02
         TOTAL TIME 2.71440E+06  45240.      754.00      31.417     8.60141E-02


end timestep


start timestep kper="2" kstp="2" mode="normal"

 UBDSV1 SAVING           STO-SS ON UNIT   1020 AT TIME STEP      2, STRESS PERIOD      2
 UBDSV1 SAVING           STO-SY ON UNIT   1020 AT TIME STEP      2, STRESS PERIOD      2
 UBDSV1 SAVING     FLOW-JA-FACE ON UNIT   1020 AT TIME STEP      2, STRESS PERIOD      2
 UBDSV06 SAVING              GHB IN MODEL EXPERIMENTAL     PACKAGE EXPERIMENTAL    CONNECTED TO MODEL EXPERIMENTAL     PACKAGE GHB              ON UNIT   1020 AT TIME STEP      2, STRESS PERIOD      2
 UBDSV06 SAVING              RCH IN MODEL EXPERIMENTAL     PACKAGE EXPERIMENTAL    CONNECTED TO MODEL EXPERIMENTAL     PACKAGE RCH              ON UNIT   1020 AT TIME STEP      2, STRESS PERIOD      2
 UBDSV06 SAVING              SFR IN MODEL EXPERIMENTAL     PACKAGE EXPERIMENTAL    CONNECTED TO MODEL EXPERIMENTAL     PACKAGE SFR              ON UNIT   1020 AT TIME STEP      2, STRESS PERIOD      2
 UBDSV06 SAVING     FLOW-JA-FACE IN MODEL EXPERIMENTAL     PACKAGE SFR             CONNECTED TO MODEL EXPERIMENTAL     PACKAGE SFR              ON UNIT   1016 AT TIME STEP      2, STRESS PERIOD      2
 UBDSV06 SAVING              GWF IN MODEL EXPERIMENTAL     PACKAGE SFR             CONNECTED TO MODEL EXPERIMENTAL     PACKAGE EXPERIMENTAL     ON UNIT   1016 AT TIME STEP      2, STRESS PERIOD      2
 UBDSV06 SAVING         RAINFALL IN MODEL EXPERIMENTAL     PACKAGE SFR             CONNECTED TO MODEL EXPERIMENTAL     PACKAGE SFR              ON UNIT   1016 AT TIME STEP      2, STRESS PERIOD      2
 UBDSV06 SAVING      EVAPORATION IN MODEL EXPERIMENTAL     PACKAGE SFR             CONNECTED TO MODEL EXPERIMENTAL     PACKAGE SFR              ON UNIT   1016 AT TIME STEP      2, STRESS PERIOD      2
 UBDSV06 SAVING           RUNOFF IN MODEL EXPERIMENTAL     PACKAGE SFR             CONNECTED TO MODEL EXPERIMENTAL     PACKAGE SFR              ON UNIT   1016 AT TIME STEP      2, STRESS PERIOD      2
 UBDSV06 SAVING       EXT-INFLOW IN MODEL EXPERIMENTAL     PACKAGE SFR             CONNECTED TO MODEL EXPERIMENTAL     PACKAGE SFR              ON UNIT   1016 AT TIME STEP      2, STRESS PERIOD      2
 UBDSV06 SAVING      EXT-OUTFLOW IN MODEL EXPERIMENTAL     PACKAGE SFR             CONNECTED TO MODEL EXPERIMENTAL     PACKAGE SFR              ON UNIT   1016 AT TIME STEP      2, STRESS PERIOD      2
 UBDSV06 SAVING          STORAGE IN MODEL EXPERIMENTAL     PACKAGE SFR             CONNECTED TO MODEL EXPERIMENTAL     PACKAGE SFR              ON UNIT   1016 AT TIME STEP      2, STRESS PERIOD      2

 HEAD WILL BE SAVED ON UNIT 1021 AT END OF TIME STEP    2, STRESS PERIOD    2

end timestep


start timestep kper="2" kstp="3" mode="normal"

 UBDSV1 SAVING           STO-SS ON UNIT   1020 AT TIME STEP      3, STRESS PERIOD      2
 UBDSV1 SAVING           STO-SY ON UNIT   1020 AT TIME STEP      3, STRESS PERIOD      2
 UBDSV1 SAVING     FLOW-JA-FACE ON UNIT   1020 AT TIME STEP      3, STRESS PERIOD      2
 UBDSV06 SAVING              GHB IN MODEL EXPERIMENTAL     PACKAGE EXPERIMENTAL    CONNECTED TO MODEL EXPERIMENTAL     PACKAGE GHB              ON UNIT   1020 AT TIME STEP      3, STRESS PERIOD      2
 UBDSV06 SAVING              RCH IN MODEL EXPERIMENTAL     PACKAGE EXPERIMENTAL    CONNECTED TO MODEL EXPERIMENTAL     PACKAGE RCH              ON UNIT   1020 AT TIME STEP      3, STRESS PERIOD      2
 UBDSV06 SAVING              SFR IN MODEL EXPERIMENTAL     PACKAGE EXPERIMENTAL    CONNECTED TO MODEL EXPERIMENTAL     PACKAGE SFR              ON UNIT   1020 AT TIME STEP      3, STRESS PERIOD      2
 UBDSV06 SAVING     FLOW-JA-FACE IN MODEL EXPERIMENTAL     PACKAGE SFR             CONNECTED TO MODEL EXPERIMENTAL     PACKAGE SFR              ON UNIT   1016 AT TIME STEP      3, STRESS PERIOD      2
 UBDSV06 SAVING              GWF IN MODEL EXPERIMENTAL     PACKAGE SFR             CONNECTED TO MODEL EXPERIMENTAL     PACKAGE EXPERIMENTAL     ON UNIT   1016 AT TIME STEP      3, STRESS PERIOD      2
 UBDSV06 SAVING         RAINFALL IN MODEL EXPERIMENTAL     PACKAGE SFR             CONNECTED TO MODEL EXPERIMENTAL     PACKAGE SFR              ON UNIT   1016 AT TIME STEP      3, STRESS PERIOD      2
 UBDSV06 SAVING      EVAPORATION IN MODEL EXPERIMENTAL     PACKAGE SFR             CONNECTED TO MODEL EXPERIMENTAL     PACKAGE SFR              ON UNIT   1016 AT TIME STEP      3, STRESS PERIOD      2
 UBDSV06 SAVING           RUNOFF IN MODEL EXPERIMENTAL     PACKAGE SFR             CONNECTED TO MODEL EXPERIMENTAL     PACKAGE SFR              ON UNIT   1016 AT TIME STEP      3, STRESS PERIOD      2
 UBDSV06 SAVING       EXT-INFLOW IN MODEL EXPERIMENTAL     PACKAGE SFR             CONNECTED TO MODEL EXPERIMENTAL     PACKAGE SFR              ON UNIT   1016 AT TIME STEP      3, STRESS PERIOD      2
 UBDSV06 SAVING      EXT-OUTFLOW IN MODEL EXPERIMENTAL     PACKAGE SFR             CONNECTED TO MODEL EXPERIMENTAL     PACKAGE SFR              ON UNIT   1016 AT TIME STEP      3, STRESS PERIOD      2
 UBDSV06 SAVING          STORAGE IN MODEL EXPERIMENTAL     PACKAGE SFR             CONNECTED TO MODEL EXPERIMENTAL     PACKAGE SFR              ON UNIT   1016 AT TIME STEP      3, STRESS PERIOD      2

 HEAD WILL BE SAVED ON UNIT 1021 AT END OF TIME STEP    3, STRESS PERIOD    2

end timestep


start timestep kper="2" kstp="4" mode="normal"

 UBDSV1 SAVING           STO-SS ON UNIT   1020 AT TIME STEP      4, STRESS PERIOD      2
 UBDSV1 SAVING           STO-SY ON UNIT   1020 AT TIME STEP      4, STRESS PERIOD      2
 UBDSV1 SAVING     FLOW-JA-FACE ON UNIT   1020 AT TIME STEP      4, STRESS PERIOD      2
 UBDSV06 SAVING              GHB IN MODEL EXPERIMENTAL     PACKAGE EXPERIMENTAL    CONNECTED TO MODEL EXPERIMENTAL     PACKAGE GHB              ON UNIT   1020 AT TIME STEP      4, STRESS PERIOD      2
 UBDSV06 SAVING              RCH IN MODEL EXPERIMENTAL     PACKAGE EXPERIMENTAL    CONNECTED TO MODEL EXPERIMENTAL     PACKAGE RCH              ON UNIT   1020 AT TIME STEP      4, STRESS PERIOD      2
 UBDSV06 SAVING              SFR IN MODEL EXPERIMENTAL     PACKAGE EXPERIMENTAL    CONNECTED TO MODEL EXPERIMENTAL     PACKAGE SFR              ON UNIT   1020 AT TIME STEP      4, STRESS PERIOD      2
 UBDSV06 SAVING     FLOW-JA-FACE IN MODEL EXPERIMENTAL     PACKAGE SFR             CONNECTED TO MODEL EXPERIMENTAL     PACKAGE SFR              ON UNIT   1016 AT TIME STEP      4, STRESS PERIOD      2
 UBDSV06 SAVING              GWF IN MODEL EXPERIMENTAL     PACKAGE SFR             CONNECTED TO MODEL EXPERIMENTAL     PACKAGE EXPERIMENTAL     ON UNIT   1016 AT TIME STEP      4, STRESS PERIOD      2
 UBDSV06 SAVING         RAINFALL IN MODEL EXPERIMENTAL     PACKAGE SFR             CONNECTED TO MODEL EXPERIMENTAL     PACKAGE SFR              ON UNIT   1016 AT TIME STEP      4, STRESS PERIOD      2
 UBDSV06 SAVING      EVAPORATION IN MODEL EXPERIMENTAL     PACKAGE SFR             CONNECTED TO MODEL EXPERIMENTAL     PACKAGE SFR              ON UNIT   1016 AT TIME STEP      4, STRESS PERIOD      2
 UBDSV06 SAVING           RUNOFF IN MODEL EXPERIMENTAL     PACKAGE SFR             CONNECTED TO MODEL EXPERIMENTAL     PACKAGE SFR              ON UNIT   1016 AT TIME STEP      4, STRESS PERIOD      2
 UBDSV06 SAVING       EXT-INFLOW IN MODEL EXPERIMENTAL     PACKAGE SFR             CONNECTED TO MODEL EXPERIMENTAL     PACKAGE SFR              ON UNIT   1016 AT TIME STEP      4, STRESS PERIOD      2
 UBDSV06 SAVING      EXT-OUTFLOW IN MODEL EXPERIMENTAL     PACKAGE SFR             CONNECTED TO MODEL EXPERIMENTAL     PACKAGE SFR              ON UNIT   1016 AT TIME STEP      4, STRESS PERIOD      2
 UBDSV06 SAVING          STORAGE IN MODEL EXPERIMENTAL     PACKAGE SFR             CONNECTED TO MODEL EXPERIMENTAL     PACKAGE SFR              ON UNIT   1016 AT TIME STEP      4, STRESS PERIOD      2

 HEAD WILL BE SAVED ON UNIT 1021 AT END OF TIME STEP    4, STRESS PERIOD    2

end timestep


start timestep kper="2" kstp="5" mode="normal"

 UBDSV1 SAVING           STO-SS ON UNIT   1020 AT TIME STEP      5, STRESS PERIOD      2
 UBDSV1 SAVING           STO-SY ON UNIT   1020 AT TIME STEP      5, STRESS PERIOD      2
 UBDSV1 SAVING     FLOW-JA-FACE ON UNIT   1020 AT TIME STEP      5, STRESS PERIOD      2
 UBDSV06 SAVING              GHB IN MODEL EXPERIMENTAL     PACKAGE EXPERIMENTAL    CONNECTED TO MODEL EXPERIMENTAL     PACKAGE GHB              ON UNIT   1020 AT TIME STEP      5, STRESS PERIOD      2
 UBDSV06 SAVING              RCH IN MODEL EXPERIMENTAL     PACKAGE EXPERIMENTAL    CONNECTED TO MODEL EXPERIMENTAL     PACKAGE RCH              ON UNIT   1020 AT TIME STEP      5, STRESS PERIOD      2
 UBDSV06 SAVING              SFR IN MODEL EXPERIMENTAL     PACKAGE EXPERIMENTAL    CONNECTED TO MODEL EXPERIMENTAL     PACKAGE SFR              ON UNIT   1020 AT TIME STEP      5, STRESS PERIOD      2
 UBDSV06 SAVING     FLOW-JA-FACE IN MODEL EXPERIMENTAL     PACKAGE SFR             CONNECTED TO MODEL EXPERIMENTAL     PACKAGE SFR              ON UNIT   1016 AT TIME STEP      5, STRESS PERIOD      2
 UBDSV06 SAVING              GWF IN MODEL EXPERIMENTAL     PACKAGE SFR             CONNECTED TO MODEL EXPERIMENTAL     PACKAGE EXPERIMENTAL     ON UNIT   1016 AT TIME STEP      5, STRESS PERIOD      2
 UBDSV06 SAVING         RAINFALL IN MODEL EXPERIMENTAL     PACKAGE SFR             CONNECTED TO MODEL EXPERIMENTAL     PACKAGE SFR              ON UNIT   1016 AT TIME STEP      5, STRESS PERIOD      2
 UBDSV06 SAVING      EVAPORATION IN MODEL EXPERIMENTAL     PACKAGE SFR             CONNECTED TO MODEL EXPERIMENTAL     PACKAGE SFR              ON UNIT   1016 AT TIME STEP      5, STRESS PERIOD      2
 UBDSV06 SAVING           RUNOFF IN MODEL EXPERIMENTAL     PACKAGE SFR             CONNECTED TO MODEL EXPERIMENTAL     PACKAGE SFR              ON UNIT   1016 AT TIME STEP      5, STRESS PERIOD      2
 UBDSV06 SAVING       EXT-INFLOW IN MODEL EXPERIMENTAL     PACKAGE SFR             CONNECTED TO MODEL EXPERIMENTAL     PACKAGE SFR              ON UNIT   1016 AT TIME STEP      5, STRESS PERIOD      2
 UBDSV06 SAVING      EXT-OUTFLOW IN MODEL EXPERIMENTAL     PACKAGE SFR             CONNECTED TO MODEL EXPERIMENTAL     PACKAGE SFR              ON UNIT   1016 AT TIME STEP      5, STRESS PERIOD      2
 UBDSV06 SAVING          STORAGE IN MODEL EXPERIMENTAL     PACKAGE SFR             CONNECTED TO MODEL EXPERIMENTAL     PACKAGE SFR              ON UNIT   1016 AT TIME STEP      5, STRESS PERIOD      2

 HEAD WILL BE SAVED ON UNIT 1021 AT END OF TIME STEP    5, STRESS PERIOD    2

end timestep


start timestep kper="2" kstp="6" mode="normal"

 UBDSV1 SAVING           STO-SS ON UNIT   1020 AT TIME STEP      6, STRESS PERIOD      2
 UBDSV1 SAVING           STO-SY ON UNIT   1020 AT TIME STEP      6, STRESS PERIOD      2
 UBDSV1 SAVING     FLOW-JA-FACE ON UNIT   1020 AT TIME STEP      6, STRESS PERIOD      2
 UBDSV06 SAVING              GHB IN MODEL EXPERIMENTAL     PACKAGE EXPERIMENTAL    CONNECTED TO MODEL EXPERIMENTAL     PACKAGE GHB              ON UNIT   1020 AT TIME STEP      6, STRESS PERIOD      2
 UBDSV06 SAVING              RCH IN MODEL EXPERIMENTAL     PACKAGE EXPERIMENTAL    CONNECTED TO MODEL EXPERIMENTAL     PACKAGE RCH              ON UNIT   1020 AT TIME STEP      6, STRESS PERIOD      2
 UBDSV06 SAVING              SFR IN MODEL EXPERIMENTAL     PACKAGE EXPERIMENTAL    CONNECTED TO MODEL EXPERIMENTAL     PACKAGE SFR              ON UNIT   1020 AT TIME STEP      6, STRESS PERIOD      2
 UBDSV06 SAVING     FLOW-JA-FACE IN MODEL EXPERIMENTAL     PACKAGE SFR             CONNECTED TO MODEL EXPERIMENTAL     PACKAGE SFR              ON UNIT   1016 AT TIME STEP      6, STRESS PERIOD      2
 UBDSV06 SAVING              GWF IN MODEL EXPERIMENTAL     PACKAGE SFR             CONNECTED TO MODEL EXPERIMENTAL     PACKAGE EXPERIMENTAL     ON UNIT   1016 AT TIME STEP      6, STRESS PERIOD      2
 UBDSV06 SAVING         RAINFALL IN MODEL EXPERIMENTAL     PACKAGE SFR             CONNECTED TO MODEL EXPERIMENTAL     PACKAGE SFR              ON UNIT   1016 AT TIME STEP      6, STRESS PERIOD      2
 UBDSV06 SAVING      EVAPORATION IN MODEL EXPERIMENTAL     PACKAGE SFR             CONNECTED TO MODEL EXPERIMENTAL     PACKAGE SFR              ON UNIT   1016 AT TIME STEP      6, STRESS PERIOD      2
 UBDSV06 SAVING           RUNOFF IN MODEL EXPERIMENTAL     PACKAGE SFR             CONNECTED TO MODEL EXPERIMENTAL     PACKAGE SFR              ON UNIT   1016 AT TIME STEP      6, STRESS PERIOD      2
 UBDSV06 SAVING       EXT-INFLOW IN MODEL EXPERIMENTAL     PACKAGE SFR             CONNECTED TO MODEL EXPERIMENTAL     PACKAGE SFR              ON UNIT   1016 AT TIME STEP      6, STRESS PERIOD      2
 UBDSV06 SAVING      EXT-OUTFLOW IN MODEL EXPERIMENTAL     PACKAGE SFR             CONNECTED TO MODEL EXPERIMENTAL     PACKAGE SFR              ON UNIT   1016 AT TIME STEP      6, STRESS PERIOD      2
 UBDSV06 SAVING          STORAGE IN MODEL EXPERIMENTAL     PACKAGE SFR             CONNECTED TO MODEL EXPERIMENTAL     PACKAGE SFR              ON UNIT   1016 AT TIME STEP      6, STRESS PERIOD      2

 HEAD WILL BE SAVED ON UNIT 1021 AT END OF TIME STEP    6, STRESS PERIOD    2

end timestep


start timestep kper="2" kstp="7" mode="normal"

 UBDSV1 SAVING           STO-SS ON UNIT   1020 AT TIME STEP      7, STRESS PERIOD      2
 UBDSV1 SAVING           STO-SY ON UNIT   1020 AT TIME STEP      7, STRESS PERIOD      2
 UBDSV1 SAVING     FLOW-JA-FACE ON UNIT   1020 AT TIME STEP      7, STRESS PERIOD      2
 UBDSV06 SAVING              GHB IN MODEL EXPERIMENTAL     PACKAGE EXPERIMENTAL    CONNECTED TO MODEL EXPERIMENTAL     PACKAGE GHB              ON UNIT   1020 AT TIME STEP      7, STRESS PERIOD      2
 UBDSV06 SAVING              RCH IN MODEL EXPERIMENTAL     PACKAGE EXPERIMENTAL    CONNECTED TO MODEL EXPERIMENTAL     PACKAGE RCH              ON UNIT   1020 AT TIME STEP      7, STRESS PERIOD      2
 UBDSV06 SAVING              SFR IN MODEL EXPERIMENTAL     PACKAGE EXPERIMENTAL    CONNECTED TO MODEL EXPERIMENTAL     PACKAGE SFR              ON UNIT   1020 AT TIME STEP      7, STRESS PERIOD      2
 UBDSV06 SAVING     FLOW-JA-FACE IN MODEL EXPERIMENTAL     PACKAGE SFR             CONNECTED TO MODEL EXPERIMENTAL     PACKAGE SFR              ON UNIT   1016 AT TIME STEP      7, STRESS PERIOD      2
 UBDSV06 SAVING              GWF IN MODEL EXPERIMENTAL     PACKAGE SFR             CONNECTED TO MODEL EXPERIMENTAL     PACKAGE EXPERIMENTAL     ON UNIT   1016 AT TIME STEP      7, STRESS PERIOD      2
 UBDSV06 SAVING         RAINFALL IN MODEL EXPERIMENTAL     PACKAGE SFR             CONNECTED TO MODEL EXPERIMENTAL     PACKAGE SFR              ON UNIT   1016 AT TIME STEP      7, STRESS PERIOD      2
 UBDSV06 SAVING      EVAPORATION IN MODEL EXPERIMENTAL     PACKAGE SFR             CONNECTED TO MODEL EXPERIMENTAL     PACKAGE SFR              ON UNIT   1016 AT TIME STEP      7, STRESS PERIOD      2
 UBDSV06 SAVING           RUNOFF IN MODEL EXPERIMENTAL     PACKAGE SFR             CONNECTED TO MODEL EXPERIMENTAL     PACKAGE SFR              ON UNIT   1016 AT TIME STEP      7, STRESS PERIOD      2
 UBDSV06 SAVING       EXT-INFLOW IN MODEL EXPERIMENTAL     PACKAGE SFR             CONNECTED TO MODEL EXPERIMENTAL     PACKAGE SFR              ON UNIT   1016 AT TIME STEP      7, STRESS PERIOD      2
 UBDSV06 SAVING      EXT-OUTFLOW IN MODEL EXPERIMENTAL     PACKAGE SFR             CONNECTED TO MODEL EXPERIMENTAL     PACKAGE SFR              ON UNIT   1016 AT TIME STEP      7, STRESS PERIOD      2
 UBDSV06 SAVING          STORAGE IN MODEL EXPERIMENTAL     PACKAGE SFR             CONNECTED TO MODEL EXPERIMENTAL     PACKAGE SFR              ON UNIT   1016 AT TIME STEP      7, STRESS PERIOD      2

 HEAD WILL BE SAVED ON UNIT 1021 AT END OF TIME STEP    7, STRESS PERIOD    2

end timestep


start timestep kper="2" kstp="8" mode="normal"

 UBDSV1 SAVING           STO-SS ON UNIT   1020 AT TIME STEP      8, STRESS PERIOD      2
 UBDSV1 SAVING           STO-SY ON UNIT   1020 AT TIME STEP      8, STRESS PERIOD      2
 UBDSV1 SAVING     FLOW-JA-FACE ON UNIT   1020 AT TIME STEP      8, STRESS PERIOD      2
 UBDSV06 SAVING              GHB IN MODEL EXPERIMENTAL     PACKAGE EXPERIMENTAL    CONNECTED TO MODEL EXPERIMENTAL     PACKAGE GHB              ON UNIT   1020 AT TIME STEP      8, STRESS PERIOD      2
 UBDSV06 SAVING              RCH IN MODEL EXPERIMENTAL     PACKAGE EXPERIMENTAL    CONNECTED TO MODEL EXPERIMENTAL     PACKAGE RCH              ON UNIT   1020 AT TIME STEP      8, STRESS PERIOD      2
 UBDSV06 SAVING              SFR IN MODEL EXPERIMENTAL     PACKAGE EXPERIMENTAL    CONNECTED TO MODEL EXPERIMENTAL     PACKAGE SFR              ON UNIT   1020 AT TIME STEP      8, STRESS PERIOD      2
 UBDSV06 SAVING     FLOW-JA-FACE IN MODEL EXPERIMENTAL     PACKAGE SFR             CONNECTED TO MODEL EXPERIMENTAL     PACKAGE SFR              ON UNIT   1016 AT TIME STEP      8, STRESS PERIOD      2
 UBDSV06 SAVING              GWF IN MODEL EXPERIMENTAL     PACKAGE SFR             CONNECTED TO MODEL EXPERIMENTAL     PACKAGE EXPERIMENTAL     ON UNIT   1016 AT TIME STEP      8, STRESS PERIOD      2
 UBDSV06 SAVING         RAINFALL IN MODEL EXPERIMENTAL     PACKAGE SFR             CONNECTED TO MODEL EXPERIMENTAL     PACKAGE SFR              ON UNIT   1016 AT TIME STEP      8, STRESS PERIOD      2
 UBDSV06 SAVING      EVAPORATION IN MODEL EXPERIMENTAL     PACKAGE SFR             CONNECTED TO MODEL EXPERIMENTAL     PACKAGE SFR              ON UNIT   1016 AT TIME STEP      8, STRESS PERIOD      2
 UBDSV06 SAVING           RUNOFF IN MODEL EXPERIMENTAL     PACKAGE SFR             CONNECTED TO MODEL EXPERIMENTAL     PACKAGE SFR              ON UNIT   1016 AT TIME STEP      8, STRESS PERIOD      2
 UBDSV06 SAVING       EXT-INFLOW IN MODEL EXPERIMENTAL     PACKAGE SFR             CONNECTED TO MODEL EXPERIMENTAL     PACKAGE SFR              ON UNIT   1016 AT TIME STEP      8, STRESS PERIOD      2
 UBDSV06 SAVING      EXT-OUTFLOW IN MODEL EXPERIMENTAL     PACKAGE SFR             CONNECTED TO MODEL EXPERIMENTAL     PACKAGE SFR              ON UNIT   1016 AT TIME STEP      8, STRESS PERIOD      2
 UBDSV06 SAVING          STORAGE IN MODEL EXPERIMENTAL     PACKAGE SFR             CONNECTED TO MODEL EXPERIMENTAL     PACKAGE SFR              ON UNIT   1016 AT TIME STEP      8, STRESS PERIOD      2

 HEAD WILL BE SAVED ON UNIT 1021 AT END OF TIME STEP    8, STRESS PERIOD    2

end timestep


start timestep kper="2" kstp="9" mode="normal"

 UBDSV1 SAVING           STO-SS ON UNIT   1020 AT TIME STEP      9, STRESS PERIOD      2
 UBDSV1 SAVING           STO-SY ON UNIT   1020 AT TIME STEP      9, STRESS PERIOD      2
 UBDSV1 SAVING     FLOW-JA-FACE ON UNIT   1020 AT TIME STEP      9, STRESS PERIOD      2
 UBDSV06 SAVING              GHB IN MODEL EXPERIMENTAL     PACKAGE EXPERIMENTAL    CONNECTED TO MODEL EXPERIMENTAL     PACKAGE GHB              ON UNIT   1020 AT TIME STEP      9, STRESS PERIOD      2
 UBDSV06 SAVING              RCH IN MODEL EXPERIMENTAL     PACKAGE EXPERIMENTAL    CONNECTED TO MODEL EXPERIMENTAL     PACKAGE RCH              ON UNIT   1020 AT TIME STEP      9, STRESS PERIOD      2
 UBDSV06 SAVING              SFR IN MODEL EXPERIMENTAL     PACKAGE EXPERIMENTAL    CONNECTED TO MODEL EXPERIMENTAL     PACKAGE SFR              ON UNIT   1020 AT TIME STEP      9, STRESS PERIOD      2
 UBDSV06 SAVING     FLOW-JA-FACE IN MODEL EXPERIMENTAL     PACKAGE SFR             CONNECTED TO MODEL EXPERIMENTAL     PACKAGE SFR              ON UNIT   1016 AT TIME STEP      9, STRESS PERIOD      2
 UBDSV06 SAVING              GWF IN MODEL EXPERIMENTAL     PACKAGE SFR             CONNECTED TO MODEL EXPERIMENTAL     PACKAGE EXPERIMENTAL     ON UNIT   1016 AT TIME STEP      9, STRESS PERIOD      2
 UBDSV06 SAVING         RAINFALL IN MODEL EXPERIMENTAL     PACKAGE SFR             CONNECTED TO MODEL EXPERIMENTAL     PACKAGE SFR              ON UNIT   1016 AT TIME STEP      9, STRESS PERIOD      2
 UBDSV06 SAVING      EVAPORATION IN MODEL EXPERIMENTAL     PACKAGE SFR             CONNECTED TO MODEL EXPERIMENTAL     PACKAGE SFR              ON UNIT   1016 AT TIME STEP      9, STRESS PERIOD      2
 UBDSV06 SAVING           RUNOFF IN MODEL EXPERIMENTAL     PACKAGE SFR             CONNECTED TO MODEL EXPERIMENTAL     PACKAGE SFR              ON UNIT   1016 AT TIME STEP      9, STRESS PERIOD      2
 UBDSV06 SAVING       EXT-INFLOW IN MODEL EXPERIMENTAL     PACKAGE SFR             CONNECTED TO MODEL EXPERIMENTAL     PACKAGE SFR              ON UNIT   1016 AT TIME STEP      9, STRESS PERIOD      2
 UBDSV06 SAVING      EXT-OUTFLOW IN MODEL EXPERIMENTAL     PACKAGE SFR             CONNECTED TO MODEL EXPERIMENTAL     PACKAGE SFR              ON UNIT   1016 AT TIME STEP      9, STRESS PERIOD      2
 UBDSV06 SAVING          STORAGE IN MODEL EXPERIMENTAL     PACKAGE SFR             CONNECTED TO MODEL EXPERIMENTAL     PACKAGE SFR              ON UNIT   1016 AT TIME STEP      9, STRESS PERIOD      2

 HEAD WILL BE SAVED ON UNIT 1021 AT END OF TIME STEP    9, STRESS PERIOD    2

end timestep


start timestep kper="2" kstp="10" mode="normal"

 UBDSV1 SAVING           STO-SS ON UNIT   1020 AT TIME STEP     10, STRESS PERIOD      2
 UBDSV1 SAVING           STO-SY ON UNIT   1020 AT TIME STEP     10, STRESS PERIOD      2
 UBDSV1 SAVING     FLOW-JA-FACE ON UNIT   1020 AT TIME STEP     10, STRESS PERIOD      2
 UBDSV06 SAVING              GHB IN MODEL EXPERIMENTAL     PACKAGE EXPERIMENTAL    CONNECTED TO MODEL EXPERIMENTAL     PACKAGE GHB              ON UNIT   1020 AT TIME STEP     10, STRESS PERIOD      2
 UBDSV06 SAVING              RCH IN MODEL EXPERIMENTAL     PACKAGE EXPERIMENTAL    CONNECTED TO MODEL EXPERIMENTAL     PACKAGE RCH              ON UNIT   1020 AT TIME STEP     10, STRESS PERIOD      2
 UBDSV06 SAVING              SFR IN MODEL EXPERIMENTAL     PACKAGE EXPERIMENTAL    CONNECTED TO MODEL EXPERIMENTAL     PACKAGE SFR              ON UNIT   1020 AT TIME STEP     10, STRESS PERIOD      2
 UBDSV06 SAVING     FLOW-JA-FACE IN MODEL EXPERIMENTAL     PACKAGE SFR             CONNECTED TO MODEL EXPERIMENTAL     PACKAGE SFR              ON UNIT   1016 AT TIME STEP     10, STRESS PERIOD      2
 UBDSV06 SAVING              GWF IN MODEL EXPERIMENTAL     PACKAGE SFR             CONNECTED TO MODEL EXPERIMENTAL     PACKAGE EXPERIMENTAL     ON UNIT   1016 AT TIME STEP     10, STRESS PERIOD      2
 UBDSV06 SAVING         RAINFALL IN MODEL EXPERIMENTAL     PACKAGE SFR             CONNECTED TO MODEL EXPERIMENTAL     PACKAGE SFR              ON UNIT   1016 AT TIME STEP     10, STRESS PERIOD      2
 UBDSV06 SAVING      EVAPORATION IN MODEL EXPERIMENTAL     PACKAGE SFR             CONNECTED TO MODEL EXPERIMENTAL     PACKAGE SFR              ON UNIT   1016 AT TIME STEP     10, STRESS PERIOD      2
 UBDSV06 SAVING           RUNOFF IN MODEL EXPERIMENTAL     PACKAGE SFR             CONNECTED TO MODEL EXPERIMENTAL     PACKAGE SFR              ON UNIT   1016 AT TIME STEP     10, STRESS PERIOD      2
 UBDSV06 SAVING       EXT-INFLOW IN MODEL EXPERIMENTAL     PACKAGE SFR             CONNECTED TO MODEL EXPERIMENTAL     PACKAGE SFR              ON UNIT   1016 AT TIME STEP     10, STRESS PERIOD      2
 UBDSV06 SAVING      EXT-OUTFLOW IN MODEL EXPERIMENTAL     PACKAGE SFR             CONNECTED TO MODEL EXPERIMENTAL     PACKAGE SFR              ON UNIT   1016 AT TIME STEP     10, STRESS PERIOD      2
 UBDSV06 SAVING          STORAGE IN MODEL EXPERIMENTAL     PACKAGE SFR             CONNECTED TO MODEL EXPERIMENTAL     PACKAGE SFR              ON UNIT   1016 AT TIME STEP     10, STRESS PERIOD      2

 HEAD WILL BE SAVED ON UNIT 1021 AT END OF TIME STEP   10, STRESS PERIOD    2

end timestep


start timestep kper="2" kstp="11" mode="normal"

 UBDSV1 SAVING           STO-SS ON UNIT   1020 AT TIME STEP     11, STRESS PERIOD      2
 UBDSV1 SAVING           STO-SY ON UNIT   1020 AT TIME STEP     11, STRESS PERIOD      2
 UBDSV1 SAVING     FLOW-JA-FACE ON UNIT   1020 AT TIME STEP     11, STRESS PERIOD      2
 UBDSV06 SAVING              GHB IN MODEL EXPERIMENTAL     PACKAGE EXPERIMENTAL    CONNECTED TO MODEL EXPERIMENTAL     PACKAGE GHB              ON UNIT   1020 AT TIME STEP     11, STRESS PERIOD      2
 UBDSV06 SAVING              RCH IN MODEL EXPERIMENTAL     PACKAGE EXPERIMENTAL    CONNECTED TO MODEL EXPERIMENTAL     PACKAGE RCH              ON UNIT   1020 AT TIME STEP     11, STRESS PERIOD      2
 UBDSV06 SAVING              SFR IN MODEL EXPERIMENTAL     PACKAGE EXPERIMENTAL    CONNECTED TO MODEL EXPERIMENTAL     PACKAGE SFR              ON UNIT   1020 AT TIME STEP     11, STRESS PERIOD      2
 UBDSV06 SAVING     FLOW-JA-FACE IN MODEL EXPERIMENTAL     PACKAGE SFR             CONNECTED TO MODEL EXPERIMENTAL     PACKAGE SFR              ON UNIT   1016 AT TIME STEP     11, STRESS PERIOD      2
 UBDSV06 SAVING              GWF IN MODEL EXPERIMENTAL     PACKAGE SFR             CONNECTED TO MODEL EXPERIMENTAL     PACKAGE EXPERIMENTAL     ON UNIT   1016 AT TIME STEP     11, STRESS PERIOD      2
 UBDSV06 SAVING         RAINFALL IN MODEL EXPERIMENTAL     PACKAGE SFR             CONNECTED TO MODEL EXPERIMENTAL     PACKAGE SFR              ON UNIT   1016 AT TIME STEP     11, STRESS PERIOD      2
 UBDSV06 SAVING      EVAPORATION IN MODEL EXPERIMENTAL     PACKAGE SFR             CONNECTED TO MODEL EXPERIMENTAL     PACKAGE SFR              ON UNIT   1016 AT TIME STEP     11, STRESS PERIOD      2
 UBDSV06 SAVING           RUNOFF IN MODEL EXPERIMENTAL     PACKAGE SFR             CONNECTED TO MODEL EXPERIMENTAL     PACKAGE SFR              ON UNIT   1016 AT TIME STEP     11, STRESS PERIOD      2
 UBDSV06 SAVING       EXT-INFLOW IN MODEL EXPERIMENTAL     PACKAGE SFR             CONNECTED TO MODEL EXPERIMENTAL     PACKAGE SFR              ON UNIT   1016 AT TIME STEP     11, STRESS PERIOD      2
 UBDSV06 SAVING      EXT-OUTFLOW IN MODEL EXPERIMENTAL     PACKAGE SFR             CONNECTED TO MODEL EXPERIMENTAL     PACKAGE SFR              ON UNIT   1016 AT TIME STEP     11, STRESS PERIOD      2
 UBDSV06 SAVING          STORAGE IN MODEL EXPERIMENTAL     PACKAGE SFR             CONNECTED TO MODEL EXPERIMENTAL     PACKAGE SFR              ON UNIT   1016 AT TIME STEP     11, STRESS PERIOD      2

 HEAD WILL BE SAVED ON UNIT 1021 AT END OF TIME STEP   11, STRESS PERIOD    2

end timestep


start timestep kper="2" kstp="12" mode="normal"

 UBDSV1 SAVING           STO-SS ON UNIT   1020 AT TIME STEP     12, STRESS PERIOD      2
 UBDSV1 SAVING           STO-SY ON UNIT   1020 AT TIME STEP     12, STRESS PERIOD      2
 UBDSV1 SAVING     FLOW-JA-FACE ON UNIT   1020 AT TIME STEP     12, STRESS PERIOD      2
 UBDSV06 SAVING              GHB IN MODEL EXPERIMENTAL     PACKAGE EXPERIMENTAL    CONNECTED TO MODEL EXPERIMENTAL     PACKAGE GHB              ON UNIT   1020 AT TIME STEP     12, STRESS PERIOD      2
 UBDSV06 SAVING              RCH IN MODEL EXPERIMENTAL     PACKAGE EXPERIMENTAL    CONNECTED TO MODEL EXPERIMENTAL     PACKAGE RCH              ON UNIT   1020 AT TIME STEP     12, STRESS PERIOD      2
 UBDSV06 SAVING              SFR IN MODEL EXPERIMENTAL     PACKAGE EXPERIMENTAL    CONNECTED TO MODEL EXPERIMENTAL     PACKAGE SFR              ON UNIT   1020 AT TIME STEP     12, STRESS PERIOD      2
 UBDSV06 SAVING     FLOW-JA-FACE IN MODEL EXPERIMENTAL     PACKAGE SFR             CONNECTED TO MODEL EXPERIMENTAL     PACKAGE SFR              ON UNIT   1016 AT TIME STEP     12, STRESS PERIOD      2
 UBDSV06 SAVING              GWF IN MODEL EXPERIMENTAL     PACKAGE SFR             CONNECTED TO MODEL EXPERIMENTAL     PACKAGE EXPERIMENTAL     ON UNIT   1016 AT TIME STEP     12, STRESS PERIOD      2
 UBDSV06 SAVING         RAINFALL IN MODEL EXPERIMENTAL     PACKAGE SFR             CONNECTED TO MODEL EXPERIMENTAL     PACKAGE SFR              ON UNIT   1016 AT TIME STEP     12, STRESS PERIOD      2
 UBDSV06 SAVING      EVAPORATION IN MODEL EXPERIMENTAL     PACKAGE SFR             CONNECTED TO MODEL EXPERIMENTAL     PACKAGE SFR              ON UNIT   1016 AT TIME STEP     12, STRESS PERIOD      2
 UBDSV06 SAVING           RUNOFF IN MODEL EXPERIMENTAL     PACKAGE SFR             CONNECTED TO MODEL EXPERIMENTAL     PACKAGE SFR              ON UNIT   1016 AT TIME STEP     12, STRESS PERIOD      2
 UBDSV06 SAVING       EXT-INFLOW IN MODEL EXPERIMENTAL     PACKAGE SFR             CONNECTED TO MODEL EXPERIMENTAL     PACKAGE SFR              ON UNIT   1016 AT TIME STEP     12, STRESS PERIOD      2
 UBDSV06 SAVING      EXT-OUTFLOW IN MODEL EXPERIMENTAL     PACKAGE SFR             CONNECTED TO MODEL EXPERIMENTAL     PACKAGE SFR              ON UNIT   1016 AT TIME STEP     12, STRESS PERIOD      2
 UBDSV06 SAVING          STORAGE IN MODEL EXPERIMENTAL     PACKAGE SFR             CONNECTED TO MODEL EXPERIMENTAL     PACKAGE SFR              ON UNIT   1016 AT TIME STEP     12, STRESS PERIOD      2

 HEAD WILL BE SAVED ON UNIT 1021 AT END OF TIME STEP   12, STRESS PERIOD    2

end timestep


start timestep kper="2" kstp="13" mode="normal"

 UBDSV1 SAVING           STO-SS ON UNIT   1020 AT TIME STEP     13, STRESS PERIOD      2
 UBDSV1 SAVING           STO-SY ON UNIT   1020 AT TIME STEP     13, STRESS PERIOD      2
 UBDSV1 SAVING     FLOW-JA-FACE ON UNIT   1020 AT TIME STEP     13, STRESS PERIOD      2
 UBDSV06 SAVING              GHB IN MODEL EXPERIMENTAL     PACKAGE EXPERIMENTAL    CONNECTED TO MODEL EXPERIMENTAL     PACKAGE GHB              ON UNIT   1020 AT TIME STEP     13, STRESS PERIOD      2
 UBDSV06 SAVING              RCH IN MODEL EXPERIMENTAL     PACKAGE EXPERIMENTAL    CONNECTED TO MODEL EXPERIMENTAL     PACKAGE RCH              ON UNIT   1020 AT TIME STEP     13, STRESS PERIOD      2
 UBDSV06 SAVING              SFR IN MODEL EXPERIMENTAL     PACKAGE EXPERIMENTAL    CONNECTED TO MODEL EXPERIMENTAL     PACKAGE SFR              ON UNIT   1020 AT TIME STEP     13, STRESS PERIOD      2
 UBDSV06 SAVING     FLOW-JA-FACE IN MODEL EXPERIMENTAL     PACKAGE SFR             CONNECTED TO MODEL EXPERIMENTAL     PACKAGE SFR              ON UNIT   1016 AT TIME STEP     13, STRESS PERIOD      2
 UBDSV06 SAVING              GWF IN MODEL EXPERIMENTAL     PACKAGE SFR             CONNECTED TO MODEL EXPERIMENTAL     PACKAGE EXPERIMENTAL     ON UNIT   1016 AT TIME STEP     13, STRESS PERIOD      2
 UBDSV06 SAVING         RAINFALL IN MODEL EXPERIMENTAL     PACKAGE SFR             CONNECTED TO MODEL EXPERIMENTAL     PACKAGE SFR              ON UNIT   1016 AT TIME STEP     13, STRESS PERIOD      2
 UBDSV06 SAVING      EVAPORATION IN MODEL EXPERIMENTAL     PACKAGE SFR             CONNECTED TO MODEL EXPERIMENTAL     PACKAGE SFR              ON UNIT   1016 AT TIME STEP     13, STRESS PERIOD      2
 UBDSV06 SAVING           RUNOFF IN MODEL EXPERIMENTAL     PACKAGE SFR             CONNECTED TO MODEL EXPERIMENTAL     PACKAGE SFR              ON UNIT   1016 AT TIME STEP     13, STRESS PERIOD      2
 UBDSV06 SAVING       EXT-INFLOW IN MODEL EXPERIMENTAL     PACKAGE SFR             CONNECTED TO MODEL EXPERIMENTAL     PACKAGE SFR              ON UNIT   1016 AT TIME STEP     13, STRESS PERIOD      2
 UBDSV06 SAVING      EXT-OUTFLOW IN MODEL EXPERIMENTAL     PACKAGE SFR             CONNECTED TO MODEL EXPERIMENTAL     PACKAGE SFR              ON UNIT   1016 AT TIME STEP     13, STRESS PERIOD      2
 UBDSV06 SAVING          STORAGE IN MODEL EXPERIMENTAL     PACKAGE SFR             CONNECTED TO MODEL EXPERIMENTAL     PACKAGE SFR              ON UNIT   1016 AT TIME STEP     13, STRESS PERIOD      2

 HEAD WILL BE SAVED ON UNIT 1021 AT END OF TIME STEP   13, STRESS PERIOD    2

end timestep


start timestep kper="2" kstp="14" mode="normal"

 UBDSV1 SAVING           STO-SS ON UNIT   1020 AT TIME STEP     14, STRESS PERIOD      2
 UBDSV1 SAVING           STO-SY ON UNIT   1020 AT TIME STEP     14, STRESS PERIOD      2
 UBDSV1 SAVING     FLOW-JA-FACE ON UNIT   1020 AT TIME STEP     14, STRESS PERIOD      2
 UBDSV06 SAVING              GHB IN MODEL EXPERIMENTAL     PACKAGE EXPERIMENTAL    CONNECTED TO MODEL EXPERIMENTAL     PACKAGE GHB              ON UNIT   1020 AT TIME STEP     14, STRESS PERIOD      2
 UBDSV06 SAVING              RCH IN MODEL EXPERIMENTAL     PACKAGE EXPERIMENTAL    CONNECTED TO MODEL EXPERIMENTAL     PACKAGE RCH              ON UNIT   1020 AT TIME STEP     14, STRESS PERIOD      2
 UBDSV06 SAVING              SFR IN MODEL EXPERIMENTAL     PACKAGE EXPERIMENTAL    CONNECTED TO MODEL EXPERIMENTAL     PACKAGE SFR              ON UNIT   1020 AT TIME STEP     14, STRESS PERIOD      2
 UBDSV06 SAVING     FLOW-JA-FACE IN MODEL EXPERIMENTAL     PACKAGE SFR             CONNECTED TO MODEL EXPERIMENTAL     PACKAGE SFR              ON UNIT   1016 AT TIME STEP     14, STRESS PERIOD      2
 UBDSV06 SAVING              GWF IN MODEL EXPERIMENTAL     PACKAGE SFR             CONNECTED TO MODEL EXPERIMENTAL     PACKAGE EXPERIMENTAL     ON UNIT   1016 AT TIME STEP     14, STRESS PERIOD      2
 UBDSV06 SAVING         RAINFALL IN MODEL EXPERIMENTAL     PACKAGE SFR             CONNECTED TO MODEL EXPERIMENTAL     PACKAGE SFR              ON UNIT   1016 AT TIME STEP     14, STRESS PERIOD      2
 UBDSV06 SAVING      EVAPORATION IN MODEL EXPERIMENTAL     PACKAGE SFR             CONNECTED TO MODEL EXPERIMENTAL     PACKAGE SFR              ON UNIT   1016 AT TIME STEP     14, STRESS PERIOD      2
 UBDSV06 SAVING           RUNOFF IN MODEL EXPERIMENTAL     PACKAGE SFR             CONNECTED TO MODEL EXPERIMENTAL     PACKAGE SFR              ON UNIT   1016 AT TIME STEP     14, STRESS PERIOD      2
 UBDSV06 SAVING       EXT-INFLOW IN MODEL EXPERIMENTAL     PACKAGE SFR             CONNECTED TO MODEL EXPERIMENTAL     PACKAGE SFR              ON UNIT   1016 AT TIME STEP     14, STRESS PERIOD      2
 UBDSV06 SAVING      EXT-OUTFLOW IN MODEL EXPERIMENTAL     PACKAGE SFR             CONNECTED TO MODEL EXPERIMENTAL     PACKAGE SFR              ON UNIT   1016 AT TIME STEP     14, STRESS PERIOD      2
 UBDSV06 SAVING          STORAGE IN MODEL EXPERIMENTAL     PACKAGE SFR             CONNECTED TO MODEL EXPERIMENTAL     PACKAGE SFR              ON UNIT   1016 AT TIME STEP     14, STRESS PERIOD      2

 HEAD WILL BE SAVED ON UNIT 1021 AT END OF TIME STEP   14, STRESS PERIOD    2

end timestep


start timestep kper="2" kstp="15" mode="normal"

 UBDSV1 SAVING           STO-SS ON UNIT   1020 AT TIME STEP     15, STRESS PERIOD      2
 UBDSV1 SAVING           STO-SY ON UNIT   1020 AT TIME STEP     15, STRESS PERIOD      2
 UBDSV1 SAVING     FLOW-JA-FACE ON UNIT   1020 AT TIME STEP     15, STRESS PERIOD      2
 UBDSV06 SAVING              GHB IN MODEL EXPERIMENTAL     PACKAGE EXPERIMENTAL    CONNECTED TO MODEL EXPERIMENTAL     PACKAGE GHB              ON UNIT   1020 AT TIME STEP     15, STRESS PERIOD      2
 UBDSV06 SAVING              RCH IN MODEL EXPERIMENTAL     PACKAGE EXPERIMENTAL    CONNECTED TO MODEL EXPERIMENTAL     PACKAGE RCH              ON UNIT   1020 AT TIME STEP     15, STRESS PERIOD      2
 UBDSV06 SAVING              SFR IN MODEL EXPERIMENTAL     PACKAGE EXPERIMENTAL    CONNECTED TO MODEL EXPERIMENTAL     PACKAGE SFR              ON UNIT   1020 AT TIME STEP     15, STRESS PERIOD      2
 UBDSV06 SAVING     FLOW-JA-FACE IN MODEL EXPERIMENTAL     PACKAGE SFR             CONNECTED TO MODEL EXPERIMENTAL     PACKAGE SFR              ON UNIT   1016 AT TIME STEP     15, STRESS PERIOD      2
 UBDSV06 SAVING              GWF IN MODEL EXPERIMENTAL     PACKAGE SFR             CONNECTED TO MODEL EXPERIMENTAL     PACKAGE EXPERIMENTAL     ON UNIT   1016 AT TIME STEP     15, STRESS PERIOD      2
 UBDSV06 SAVING         RAINFALL IN MODEL EXPERIMENTAL     PACKAGE SFR             CONNECTED TO MODEL EXPERIMENTAL     PACKAGE SFR              ON UNIT   1016 AT TIME STEP     15, STRESS PERIOD      2
 UBDSV06 SAVING      EVAPORATION IN MODEL EXPERIMENTAL     PACKAGE SFR             CONNECTED TO MODEL EXPERIMENTAL     PACKAGE SFR              ON UNIT   1016 AT TIME STEP     15, STRESS PERIOD      2
 UBDSV06 SAVING           RUNOFF IN MODEL EXPERIMENTAL     PACKAGE SFR             CONNECTED TO MODEL EXPERIMENTAL     PACKAGE SFR              ON UNIT   1016 AT TIME STEP     15, STRESS PERIOD      2
 UBDSV06 SAVING       EXT-INFLOW IN MODEL EXPERIMENTAL     PACKAGE SFR             CONNECTED TO MODEL EXPERIMENTAL     PACKAGE SFR              ON UNIT   1016 AT TIME STEP     15, STRESS PERIOD      2
 UBDSV06 SAVING      EXT-OUTFLOW IN MODEL EXPERIMENTAL     PACKAGE SFR             CONNECTED TO MODEL EXPERIMENTAL     PACKAGE SFR              ON UNIT   1016 AT TIME STEP     15, STRESS PERIOD      2
 UBDSV06 SAVING          STORAGE IN MODEL EXPERIMENTAL     PACKAGE SFR             CONNECTED TO MODEL EXPERIMENTAL     PACKAGE SFR              ON UNIT   1016 AT TIME STEP     15, STRESS PERIOD      2

 HEAD WILL BE SAVED ON UNIT 1021 AT END OF TIME STEP   15, STRESS PERIOD    2

end timestep


start timestep kper="2" kstp="16" mode="normal"

 UBDSV1 SAVING           STO-SS ON UNIT   1020 AT TIME STEP     16, STRESS PERIOD      2
 UBDSV1 SAVING           STO-SY ON UNIT   1020 AT TIME STEP     16, STRESS PERIOD      2
 UBDSV1 SAVING     FLOW-JA-FACE ON UNIT   1020 AT TIME STEP     16, STRESS PERIOD      2
 UBDSV06 SAVING              GHB IN MODEL EXPERIMENTAL     PACKAGE EXPERIMENTAL    CONNECTED TO MODEL EXPERIMENTAL     PACKAGE GHB              ON UNIT   1020 AT TIME STEP     16, STRESS PERIOD      2
 UBDSV06 SAVING              RCH IN MODEL EXPERIMENTAL     PACKAGE EXPERIMENTAL    CONNECTED TO MODEL EXPERIMENTAL     PACKAGE RCH              ON UNIT   1020 AT TIME STEP     16, STRESS PERIOD      2
 UBDSV06 SAVING              SFR IN MODEL EXPERIMENTAL     PACKAGE EXPERIMENTAL    CONNECTED TO MODEL EXPERIMENTAL     PACKAGE SFR              ON UNIT   1020 AT TIME STEP     16, STRESS PERIOD      2
 UBDSV06 SAVING     FLOW-JA-FACE IN MODEL EXPERIMENTAL     PACKAGE SFR             CONNECTED TO MODEL EXPERIMENTAL     PACKAGE SFR              ON UNIT   1016 AT TIME STEP     16, STRESS PERIOD      2
 UBDSV06 SAVING              GWF IN MODEL EXPERIMENTAL     PACKAGE SFR             CONNECTED TO MODEL EXPERIMENTAL     PACKAGE EXPERIMENTAL     ON UNIT   1016 AT TIME STEP     16, STRESS PERIOD      2
 UBDSV06 SAVING         RAINFALL IN MODEL EXPERIMENTAL     PACKAGE SFR             CONNECTED TO MODEL EXPERIMENTAL     PACKAGE SFR              ON UNIT   1016 AT TIME STEP     16, STRESS PERIOD      2
 UBDSV06 SAVING      EVAPORATION IN MODEL EXPERIMENTAL     PACKAGE SFR             CONNECTED TO MODEL EXPERIMENTAL     PACKAGE SFR              ON UNIT   1016 AT TIME STEP     16, STRESS PERIOD      2
 UBDSV06 SAVING           RUNOFF IN MODEL EXPERIMENTAL     PACKAGE SFR             CONNECTED TO MODEL EXPERIMENTAL     PACKAGE SFR              ON UNIT   1016 AT TIME STEP     16, STRESS PERIOD      2
 UBDSV06 SAVING       EXT-INFLOW IN MODEL EXPERIMENTAL     PACKAGE SFR             CONNECTED TO MODEL EXPERIMENTAL     PACKAGE SFR              ON UNIT   1016 AT TIME STEP     16, STRESS PERIOD      2
 UBDSV06 SAVING      EXT-OUTFLOW IN MODEL EXPERIMENTAL     PACKAGE SFR             CONNECTED TO MODEL EXPERIMENTAL     PACKAGE SFR              ON UNIT   1016 AT TIME STEP     16, STRESS PERIOD      2
 UBDSV06 SAVING          STORAGE IN MODEL EXPERIMENTAL     PACKAGE SFR             CONNECTED TO MODEL EXPERIMENTAL     PACKAGE SFR              ON UNIT   1016 AT TIME STEP     16, STRESS PERIOD      2

 HEAD WILL BE SAVED ON UNIT 1021 AT END OF TIME STEP   16, STRESS PERIOD    2

end timestep


start timestep kper="2" kstp="17" mode="normal"

 UBDSV1 SAVING           STO-SS ON UNIT   1020 AT TIME STEP     17, STRESS PERIOD      2
 UBDSV1 SAVING           STO-SY ON UNIT   1020 AT TIME STEP     17, STRESS PERIOD      2
 UBDSV1 SAVING     FLOW-JA-FACE ON UNIT   1020 AT TIME STEP     17, STRESS PERIOD      2
 UBDSV06 SAVING              GHB IN MODEL EXPERIMENTAL     PACKAGE EXPERIMENTAL    CONNECTED TO MODEL EXPERIMENTAL     PACKAGE GHB              ON UNIT   1020 AT TIME STEP     17, STRESS PERIOD      2
 UBDSV06 SAVING              RCH IN MODEL EXPERIMENTAL     PACKAGE EXPERIMENTAL    CONNECTED TO MODEL EXPERIMENTAL     PACKAGE RCH              ON UNIT   1020 AT TIME STEP     17, STRESS PERIOD      2
 UBDSV06 SAVING              SFR IN MODEL EXPERIMENTAL     PACKAGE EXPERIMENTAL    CONNECTED TO MODEL EXPERIMENTAL     PACKAGE SFR              ON UNIT   1020 AT TIME STEP     17, STRESS PERIOD      2
 UBDSV06 SAVING     FLOW-JA-FACE IN MODEL EXPERIMENTAL     PACKAGE SFR             CONNECTED TO MODEL EXPERIMENTAL     PACKAGE SFR              ON UNIT   1016 AT TIME STEP     17, STRESS PERIOD      2
 UBDSV06 SAVING              GWF IN MODEL EXPERIMENTAL     PACKAGE SFR             CONNECTED TO MODEL EXPERIMENTAL     PACKAGE EXPERIMENTAL     ON UNIT   1016 AT TIME STEP     17, STRESS PERIOD      2
 UBDSV06 SAVING         RAINFALL IN MODEL EXPERIMENTAL     PACKAGE SFR             CONNECTED TO MODEL EXPERIMENTAL     PACKAGE SFR              ON UNIT   1016 AT TIME STEP     17, STRESS PERIOD      2
 UBDSV06 SAVING      EVAPORATION IN MODEL EXPERIMENTAL     PACKAGE SFR             CONNECTED TO MODEL EXPERIMENTAL     PACKAGE SFR              ON UNIT   1016 AT TIME STEP     17, STRESS PERIOD      2
 UBDSV06 SAVING           RUNOFF IN MODEL EXPERIMENTAL     PACKAGE SFR             CONNECTED TO MODEL EXPERIMENTAL     PACKAGE SFR              ON UNIT   1016 AT TIME STEP     17, STRESS PERIOD      2
 UBDSV06 SAVING       EXT-INFLOW IN MODEL EXPERIMENTAL     PACKAGE SFR             CONNECTED TO MODEL EXPERIMENTAL     PACKAGE SFR              ON UNIT   1016 AT TIME STEP     17, STRESS PERIOD      2
 UBDSV06 SAVING      EXT-OUTFLOW IN MODEL EXPERIMENTAL     PACKAGE SFR             CONNECTED TO MODEL EXPERIMENTAL     PACKAGE SFR              ON UNIT   1016 AT TIME STEP     17, STRESS PERIOD      2
 UBDSV06 SAVING          STORAGE IN MODEL EXPERIMENTAL     PACKAGE SFR             CONNECTED TO MODEL EXPERIMENTAL     PACKAGE SFR              ON UNIT   1016 AT TIME STEP     17, STRESS PERIOD      2

 HEAD WILL BE SAVED ON UNIT 1021 AT END OF TIME STEP   17, STRESS PERIOD    2

end timestep


start timestep kper="2" kstp="18" mode="normal"

 UBDSV1 SAVING           STO-SS ON UNIT   1020 AT TIME STEP     18, STRESS PERIOD      2
 UBDSV1 SAVING           STO-SY ON UNIT   1020 AT TIME STEP     18, STRESS PERIOD      2
 UBDSV1 SAVING     FLOW-JA-FACE ON UNIT   1020 AT TIME STEP     18, STRESS PERIOD      2
 UBDSV06 SAVING              GHB IN MODEL EXPERIMENTAL     PACKAGE EXPERIMENTAL    CONNECTED TO MODEL EXPERIMENTAL     PACKAGE GHB              ON UNIT   1020 AT TIME STEP     18, STRESS PERIOD      2
 UBDSV06 SAVING              RCH IN MODEL EXPERIMENTAL     PACKAGE EXPERIMENTAL    CONNECTED TO MODEL EXPERIMENTAL     PACKAGE RCH              ON UNIT   1020 AT TIME STEP     18, STRESS PERIOD      2
 UBDSV06 SAVING              SFR IN MODEL EXPERIMENTAL     PACKAGE EXPERIMENTAL    CONNECTED TO MODEL EXPERIMENTAL     PACKAGE SFR              ON UNIT   1020 AT TIME STEP     18, STRESS PERIOD      2
 UBDSV06 SAVING     FLOW-JA-FACE IN MODEL EXPERIMENTAL     PACKAGE SFR             CONNECTED TO MODEL EXPERIMENTAL     PACKAGE SFR              ON UNIT   1016 AT TIME STEP     18, STRESS PERIOD      2
 UBDSV06 SAVING              GWF IN MODEL EXPERIMENTAL     PACKAGE SFR             CONNECTED TO MODEL EXPERIMENTAL     PACKAGE EXPERIMENTAL     ON UNIT   1016 AT TIME STEP     18, STRESS PERIOD      2
 UBDSV06 SAVING         RAINFALL IN MODEL EXPERIMENTAL     PACKAGE SFR             CONNECTED TO MODEL EXPERIMENTAL     PACKAGE SFR              ON UNIT   1016 AT TIME STEP     18, STRESS PERIOD      2
 UBDSV06 SAVING      EVAPORATION IN MODEL EXPERIMENTAL     PACKAGE SFR             CONNECTED TO MODEL EXPERIMENTAL     PACKAGE SFR              ON UNIT   1016 AT TIME STEP     18, STRESS PERIOD      2
 UBDSV06 SAVING           RUNOFF IN MODEL EXPERIMENTAL     PACKAGE SFR             CONNECTED TO MODEL EXPERIMENTAL     PACKAGE SFR              ON UNIT   1016 AT TIME STEP     18, STRESS PERIOD      2
 UBDSV06 SAVING       EXT-INFLOW IN MODEL EXPERIMENTAL     PACKAGE SFR             CONNECTED TO MODEL EXPERIMENTAL     PACKAGE SFR              ON UNIT   1016 AT TIME STEP     18, STRESS PERIOD      2
 UBDSV06 SAVING      EXT-OUTFLOW IN MODEL EXPERIMENTAL     PACKAGE SFR             CONNECTED TO MODEL EXPERIMENTAL     PACKAGE SFR              ON UNIT   1016 AT TIME STEP     18, STRESS PERIOD      2
 UBDSV06 SAVING          STORAGE IN MODEL EXPERIMENTAL     PACKAGE SFR             CONNECTED TO MODEL EXPERIMENTAL     PACKAGE SFR              ON UNIT   1016 AT TIME STEP     18, STRESS PERIOD      2

 HEAD WILL BE SAVED ON UNIT 1021 AT END OF TIME STEP   18, STRESS PERIOD    2

end timestep


start timestep kper="2" kstp="19" mode="normal"

 UBDSV1 SAVING           STO-SS ON UNIT   1020 AT TIME STEP     19, STRESS PERIOD      2
 UBDSV1 SAVING           STO-SY ON UNIT   1020 AT TIME STEP     19, STRESS PERIOD      2
 UBDSV1 SAVING     FLOW-JA-FACE ON UNIT   1020 AT TIME STEP     19, STRESS PERIOD      2
 UBDSV06 SAVING              GHB IN MODEL EXPERIMENTAL     PACKAGE EXPERIMENTAL    CONNECTED TO MODEL EXPERIMENTAL     PACKAGE GHB              ON UNIT   1020 AT TIME STEP     19, STRESS PERIOD      2
 UBDSV06 SAVING              RCH IN MODEL EXPERIMENTAL     PACKAGE EXPERIMENTAL    CONNECTED TO MODEL EXPERIMENTAL     PACKAGE RCH              ON UNIT   1020 AT TIME STEP     19, STRESS PERIOD      2
 UBDSV06 SAVING              SFR IN MODEL EXPERIMENTAL     PACKAGE EXPERIMENTAL    CONNECTED TO MODEL EXPERIMENTAL     PACKAGE SFR              ON UNIT   1020 AT TIME STEP     19, STRESS PERIOD      2
 UBDSV06 SAVING     FLOW-JA-FACE IN MODEL EXPERIMENTAL     PACKAGE SFR             CONNECTED TO MODEL EXPERIMENTAL     PACKAGE SFR              ON UNIT   1016 AT TIME STEP     19, STRESS PERIOD      2
 UBDSV06 SAVING              GWF IN MODEL EXPERIMENTAL     PACKAGE SFR             CONNECTED TO MODEL EXPERIMENTAL     PACKAGE EXPERIMENTAL     ON UNIT   1016 AT TIME STEP     19, STRESS PERIOD      2
 UBDSV06 SAVING         RAINFALL IN MODEL EXPERIMENTAL     PACKAGE SFR             CONNECTED TO MODEL EXPERIMENTAL     PACKAGE SFR              ON UNIT   1016 AT TIME STEP     19, STRESS PERIOD      2
 UBDSV06 SAVING      EVAPORATION IN MODEL EXPERIMENTAL     PACKAGE SFR             CONNECTED TO MODEL EXPERIMENTAL     PACKAGE SFR              ON UNIT   1016 AT TIME STEP     19, STRESS PERIOD      2
 UBDSV06 SAVING           RUNOFF IN MODEL EXPERIMENTAL     PACKAGE SFR             CONNECTED TO MODEL EXPERIMENTAL     PACKAGE SFR              ON UNIT   1016 AT TIME STEP     19, STRESS PERIOD      2
 UBDSV06 SAVING       EXT-INFLOW IN MODEL EXPERIMENTAL     PACKAGE SFR             CONNECTED TO MODEL EXPERIMENTAL     PACKAGE SFR              ON UNIT   1016 AT TIME STEP     19, STRESS PERIOD      2
 UBDSV06 SAVING      EXT-OUTFLOW IN MODEL EXPERIMENTAL     PACKAGE SFR             CONNECTED TO MODEL EXPERIMENTAL     PACKAGE SFR              ON UNIT   1016 AT TIME STEP     19, STRESS PERIOD      2
 UBDSV06 SAVING          STORAGE IN MODEL EXPERIMENTAL     PACKAGE SFR             CONNECTED TO MODEL EXPERIMENTAL     PACKAGE SFR              ON UNIT   1016 AT TIME STEP     19, STRESS PERIOD      2

 HEAD WILL BE SAVED ON UNIT 1021 AT END OF TIME STEP   19, STRESS PERIOD    2

end timestep


start timestep kper="2" kstp="20" mode="normal"

 UBDSV1 SAVING           STO-SS ON UNIT   1020 AT TIME STEP     20, STRESS PERIOD      2
 UBDSV1 SAVING           STO-SY ON UNIT   1020 AT TIME STEP     20, STRESS PERIOD      2
 UBDSV1 SAVING     FLOW-JA-FACE ON UNIT   1020 AT TIME STEP     20, STRESS PERIOD      2
 UBDSV06 SAVING              GHB IN MODEL EXPERIMENTAL     PACKAGE EXPERIMENTAL    CONNECTED TO MODEL EXPERIMENTAL     PACKAGE GHB              ON UNIT   1020 AT TIME STEP     20, STRESS PERIOD      2
 UBDSV06 SAVING              RCH IN MODEL EXPERIMENTAL     PACKAGE EXPERIMENTAL    CONNECTED TO MODEL EXPERIMENTAL     PACKAGE RCH              ON UNIT   1020 AT TIME STEP     20, STRESS PERIOD      2
 UBDSV06 SAVING              SFR IN MODEL EXPERIMENTAL     PACKAGE EXPERIMENTAL    CONNECTED TO MODEL EXPERIMENTAL     PACKAGE SFR              ON UNIT   1020 AT TIME STEP     20, STRESS PERIOD      2
 UBDSV06 SAVING     FLOW-JA-FACE IN MODEL EXPERIMENTAL     PACKAGE SFR             CONNECTED TO MODEL EXPERIMENTAL     PACKAGE SFR              ON UNIT   1016 AT TIME STEP     20, STRESS PERIOD      2
 UBDSV06 SAVING              GWF IN MODEL EXPERIMENTAL     PACKAGE SFR             CONNECTED TO MODEL EXPERIMENTAL     PACKAGE EXPERIMENTAL     ON UNIT   1016 AT TIME STEP     20, STRESS PERIOD      2
 UBDSV06 SAVING         RAINFALL IN MODEL EXPERIMENTAL     PACKAGE SFR             CONNECTED TO MODEL EXPERIMENTAL     PACKAGE SFR              ON UNIT   1016 AT TIME STEP     20, STRESS PERIOD      2
 UBDSV06 SAVING      EVAPORATION IN MODEL EXPERIMENTAL     PACKAGE SFR             CONNECTED TO MODEL EXPERIMENTAL     PACKAGE SFR              ON UNIT   1016 AT TIME STEP     20, STRESS PERIOD      2
 UBDSV06 SAVING           RUNOFF IN MODEL EXPERIMENTAL     PACKAGE SFR             CONNECTED TO MODEL EXPERIMENTAL     PACKAGE SFR              ON UNIT   1016 AT TIME STEP     20, STRESS PERIOD      2
 UBDSV06 SAVING       EXT-INFLOW IN MODEL EXPERIMENTAL     PACKAGE SFR             CONNECTED TO MODEL EXPERIMENTAL     PACKAGE SFR              ON UNIT   1016 AT TIME STEP     20, STRESS PERIOD      2
 UBDSV06 SAVING      EXT-OUTFLOW IN MODEL EXPERIMENTAL     PACKAGE SFR             CONNECTED TO MODEL EXPERIMENTAL     PACKAGE SFR              ON UNIT   1016 AT TIME STEP     20, STRESS PERIOD      2
 UBDSV06 SAVING          STORAGE IN MODEL EXPERIMENTAL     PACKAGE SFR             CONNECTED TO MODEL EXPERIMENTAL     PACKAGE SFR              ON UNIT   1016 AT TIME STEP     20, STRESS PERIOD      2

 HEAD WILL BE SAVED ON UNIT 1021 AT END OF TIME STEP   20, STRESS PERIOD    2

end timestep


start timestep kper="2" kstp="21" mode="normal"

 UBDSV1 SAVING           STO-SS ON UNIT   1020 AT TIME STEP     21, STRESS PERIOD      2
 UBDSV1 SAVING           STO-SY ON UNIT   1020 AT TIME STEP     21, STRESS PERIOD      2
 UBDSV1 SAVING     FLOW-JA-FACE ON UNIT   1020 AT TIME STEP     21, STRESS PERIOD      2
 UBDSV06 SAVING              GHB IN MODEL EXPERIMENTAL     PACKAGE EXPERIMENTAL    CONNECTED TO MODEL EXPERIMENTAL     PACKAGE GHB              ON UNIT   1020 AT TIME STEP     21, STRESS PERIOD      2
 UBDSV06 SAVING              RCH IN MODEL EXPERIMENTAL     PACKAGE EXPERIMENTAL    CONNECTED TO MODEL EXPERIMENTAL     PACKAGE RCH              ON UNIT   1020 AT TIME STEP     21, STRESS PERIOD      2
 UBDSV06 SAVING              SFR IN MODEL EXPERIMENTAL     PACKAGE EXPERIMENTAL    CONNECTED TO MODEL EXPERIMENTAL     PACKAGE SFR              ON UNIT   1020 AT TIME STEP     21, STRESS PERIOD      2
 UBDSV06 SAVING     FLOW-JA-FACE IN MODEL EXPERIMENTAL     PACKAGE SFR             CONNECTED TO MODEL EXPERIMENTAL     PACKAGE SFR              ON UNIT   1016 AT TIME STEP     21, STRESS PERIOD      2
 UBDSV06 SAVING              GWF IN MODEL EXPERIMENTAL     PACKAGE SFR             CONNECTED TO MODEL EXPERIMENTAL     PACKAGE EXPERIMENTAL     ON UNIT   1016 AT TIME STEP     21, STRESS PERIOD      2
 UBDSV06 SAVING         RAINFALL IN MODEL EXPERIMENTAL     PACKAGE SFR             CONNECTED TO MODEL EXPERIMENTAL     PACKAGE SFR              ON UNIT   1016 AT TIME STEP     21, STRESS PERIOD      2
 UBDSV06 SAVING      EVAPORATION IN MODEL EXPERIMENTAL     PACKAGE SFR             CONNECTED TO MODEL EXPERIMENTAL     PACKAGE SFR              ON UNIT   1016 AT TIME STEP     21, STRESS PERIOD      2
 UBDSV06 SAVING           RUNOFF IN MODEL EXPERIMENTAL     PACKAGE SFR             CONNECTED TO MODEL EXPERIMENTAL     PACKAGE SFR              ON UNIT   1016 AT TIME STEP     21, STRESS PERIOD      2
 UBDSV06 SAVING       EXT-INFLOW IN MODEL EXPERIMENTAL     PACKAGE SFR             CONNECTED TO MODEL EXPERIMENTAL     PACKAGE SFR              ON UNIT   1016 AT TIME STEP     21, STRESS PERIOD      2
 UBDSV06 SAVING      EXT-OUTFLOW IN MODEL EXPERIMENTAL     PACKAGE SFR             CONNECTED TO MODEL EXPERIMENTAL     PACKAGE SFR              ON UNIT   1016 AT TIME STEP     21, STRESS PERIOD      2
 UBDSV06 SAVING          STORAGE IN MODEL EXPERIMENTAL     PACKAGE SFR             CONNECTED TO MODEL EXPERIMENTAL     PACKAGE SFR              ON UNIT   1016 AT TIME STEP     21, STRESS PERIOD      2

 HEAD WILL BE SAVED ON UNIT 1021 AT END OF TIME STEP   21, STRESS PERIOD    2

end timestep


start timestep kper="2" kstp="22" mode="normal"

 UBDSV1 SAVING           STO-SS ON UNIT   1020 AT TIME STEP     22, STRESS PERIOD      2
 UBDSV1 SAVING           STO-SY ON UNIT   1020 AT TIME STEP     22, STRESS PERIOD      2
 UBDSV1 SAVING     FLOW-JA-FACE ON UNIT   1020 AT TIME STEP     22, STRESS PERIOD      2
 UBDSV06 SAVING              GHB IN MODEL EXPERIMENTAL     PACKAGE EXPERIMENTAL    CONNECTED TO MODEL EXPERIMENTAL     PACKAGE GHB              ON UNIT   1020 AT TIME STEP     22, STRESS PERIOD      2
 UBDSV06 SAVING              RCH IN MODEL EXPERIMENTAL     PACKAGE EXPERIMENTAL    CONNECTED TO MODEL EXPERIMENTAL     PACKAGE RCH              ON UNIT   1020 AT TIME STEP     22, STRESS PERIOD      2
 UBDSV06 SAVING              SFR IN MODEL EXPERIMENTAL     PACKAGE EXPERIMENTAL    CONNECTED TO MODEL EXPERIMENTAL     PACKAGE SFR              ON UNIT   1020 AT TIME STEP     22, STRESS PERIOD      2
 UBDSV06 SAVING     FLOW-JA-FACE IN MODEL EXPERIMENTAL     PACKAGE SFR             CONNECTED TO MODEL EXPERIMENTAL     PACKAGE SFR              ON UNIT   1016 AT TIME STEP     22, STRESS PERIOD      2
 UBDSV06 SAVING              GWF IN MODEL EXPERIMENTAL     PACKAGE SFR             CONNECTED TO MODEL EXPERIMENTAL     PACKAGE EXPERIMENTAL     ON UNIT   1016 AT TIME STEP     22, STRESS PERIOD      2
 UBDSV06 SAVING         RAINFALL IN MODEL EXPERIMENTAL     PACKAGE SFR             CONNECTED TO MODEL EXPERIMENTAL     PACKAGE SFR              ON UNIT   1016 AT TIME STEP     22, STRESS PERIOD      2
 UBDSV06 SAVING      EVAPORATION IN MODEL EXPERIMENTAL     PACKAGE SFR             CONNECTED TO MODEL EXPERIMENTAL     PACKAGE SFR              ON UNIT   1016 AT TIME STEP     22, STRESS PERIOD      2
 UBDSV06 SAVING           RUNOFF IN MODEL EXPERIMENTAL     PACKAGE SFR             CONNECTED TO MODEL EXPERIMENTAL     PACKAGE SFR              ON UNIT   1016 AT TIME STEP     22, STRESS PERIOD      2
 UBDSV06 SAVING       EXT-INFLOW IN MODEL EXPERIMENTAL     PACKAGE SFR             CONNECTED TO MODEL EXPERIMENTAL     PACKAGE SFR              ON UNIT   1016 AT TIME STEP     22, STRESS PERIOD      2
 UBDSV06 SAVING      EXT-OUTFLOW IN MODEL EXPERIMENTAL     PACKAGE SFR             CONNECTED TO MODEL EXPERIMENTAL     PACKAGE SFR              ON UNIT   1016 AT TIME STEP     22, STRESS PERIOD      2
 UBDSV06 SAVING          STORAGE IN MODEL EXPERIMENTAL     PACKAGE SFR             CONNECTED TO MODEL EXPERIMENTAL     PACKAGE SFR              ON UNIT   1016 AT TIME STEP     22, STRESS PERIOD      2

 HEAD WILL BE SAVED ON UNIT 1021 AT END OF TIME STEP   22, STRESS PERIOD    2

end timestep


start timestep kper="2" kstp="23" mode="normal"

 UBDSV1 SAVING           STO-SS ON UNIT   1020 AT TIME STEP     23, STRESS PERIOD      2
 UBDSV1 SAVING           STO-SY ON UNIT   1020 AT TIME STEP     23, STRESS PERIOD      2
 UBDSV1 SAVING     FLOW-JA-FACE ON UNIT   1020 AT TIME STEP     23, STRESS PERIOD      2
 UBDSV06 SAVING              GHB IN MODEL EXPERIMENTAL     PACKAGE EXPERIMENTAL    CONNECTED TO MODEL EXPERIMENTAL     PACKAGE GHB              ON UNIT   1020 AT TIME STEP     23, STRESS PERIOD      2
 UBDSV06 SAVING              RCH IN MODEL EXPERIMENTAL     PACKAGE EXPERIMENTAL    CONNECTED TO MODEL EXPERIMENTAL     PACKAGE RCH              ON UNIT   1020 AT TIME STEP     23, STRESS PERIOD      2
 UBDSV06 SAVING              SFR IN MODEL EXPERIMENTAL     PACKAGE EXPERIMENTAL    CONNECTED TO MODEL EXPERIMENTAL     PACKAGE SFR              ON UNIT   1020 AT TIME STEP     23, STRESS PERIOD      2
 UBDSV06 SAVING     FLOW-JA-FACE IN MODEL EXPERIMENTAL     PACKAGE SFR             CONNECTED TO MODEL EXPERIMENTAL     PACKAGE SFR              ON UNIT   1016 AT TIME STEP     23, STRESS PERIOD      2
 UBDSV06 SAVING              GWF IN MODEL EXPERIMENTAL     PACKAGE SFR             CONNECTED TO MODEL EXPERIMENTAL     PACKAGE EXPERIMENTAL     ON UNIT   1016 AT TIME STEP     23, STRESS PERIOD      2
 UBDSV06 SAVING         RAINFALL IN MODEL EXPERIMENTAL     PACKAGE SFR             CONNECTED TO MODEL EXPERIMENTAL     PACKAGE SFR              ON UNIT   1016 AT TIME STEP     23, STRESS PERIOD      2
 UBDSV06 SAVING      EVAPORATION IN MODEL EXPERIMENTAL     PACKAGE SFR             CONNECTED TO MODEL EXPERIMENTAL     PACKAGE SFR              ON UNIT   1016 AT TIME STEP     23, STRESS PERIOD      2
 UBDSV06 SAVING           RUNOFF IN MODEL EXPERIMENTAL     PACKAGE SFR             CONNECTED TO MODEL EXPERIMENTAL     PACKAGE SFR              ON UNIT   1016 AT TIME STEP     23, STRESS PERIOD      2
 UBDSV06 SAVING       EXT-INFLOW IN MODEL EXPERIMENTAL     PACKAGE SFR             CONNECTED TO MODEL EXPERIMENTAL     PACKAGE SFR              ON UNIT   1016 AT TIME STEP     23, STRESS PERIOD      2
 UBDSV06 SAVING      EXT-OUTFLOW IN MODEL EXPERIMENTAL     PACKAGE SFR             CONNECTED TO MODEL EXPERIMENTAL     PACKAGE SFR              ON UNIT   1016 AT TIME STEP     23, STRESS PERIOD      2
 UBDSV06 SAVING          STORAGE IN MODEL EXPERIMENTAL     PACKAGE SFR             CONNECTED TO MODEL EXPERIMENTAL     PACKAGE SFR              ON UNIT   1016 AT TIME STEP     23, STRESS PERIOD      2

 HEAD WILL BE SAVED ON UNIT 1021 AT END OF TIME STEP   23, STRESS PERIOD    2

end timestep


start timestep kper="2" kstp="24" mode="normal"

 UBDSV1 SAVING           STO-SS ON UNIT   1020 AT TIME STEP     24, STRESS PERIOD      2
 UBDSV1 SAVING           STO-SY ON UNIT   1020 AT TIME STEP     24, STRESS PERIOD      2
 UBDSV1 SAVING     FLOW-JA-FACE ON UNIT   1020 AT TIME STEP     24, STRESS PERIOD      2
 UBDSV06 SAVING              GHB IN MODEL EXPERIMENTAL     PACKAGE EXPERIMENTAL    CONNECTED TO MODEL EXPERIMENTAL     PACKAGE GHB              ON UNIT   1020 AT TIME STEP     24, STRESS PERIOD      2
 UBDSV06 SAVING              RCH IN MODEL EXPERIMENTAL     PACKAGE EXPERIMENTAL    CONNECTED TO MODEL EXPERIMENTAL     PACKAGE RCH              ON UNIT   1020 AT TIME STEP     24, STRESS PERIOD      2
 UBDSV06 SAVING              SFR IN MODEL EXPERIMENTAL     PACKAGE EXPERIMENTAL    CONNECTED TO MODEL EXPERIMENTAL     PACKAGE SFR              ON UNIT   1020 AT TIME STEP     24, STRESS PERIOD      2
 UBDSV06 SAVING     FLOW-JA-FACE IN MODEL EXPERIMENTAL     PACKAGE SFR             CONNECTED TO MODEL EXPERIMENTAL     PACKAGE SFR              ON UNIT   1016 AT TIME STEP     24, STRESS PERIOD      2
 UBDSV06 SAVING              GWF IN MODEL EXPERIMENTAL     PACKAGE SFR             CONNECTED TO MODEL EXPERIMENTAL     PACKAGE EXPERIMENTAL     ON UNIT   1016 AT TIME STEP     24, STRESS PERIOD      2
 UBDSV06 SAVING         RAINFALL IN MODEL EXPERIMENTAL     PACKAGE SFR             CONNECTED TO MODEL EXPERIMENTAL     PACKAGE SFR              ON UNIT   1016 AT TIME STEP     24, STRESS PERIOD      2
 UBDSV06 SAVING      EVAPORATION IN MODEL EXPERIMENTAL     PACKAGE SFR             CONNECTED TO MODEL EXPERIMENTAL     PACKAGE SFR              ON UNIT   1016 AT TIME STEP     24, STRESS PERIOD      2
 UBDSV06 SAVING           RUNOFF IN MODEL EXPERIMENTAL     PACKAGE SFR             CONNECTED TO MODEL EXPERIMENTAL     PACKAGE SFR              ON UNIT   1016 AT TIME STEP     24, STRESS PERIOD      2
 UBDSV06 SAVING       EXT-INFLOW IN MODEL EXPERIMENTAL     PACKAGE SFR             CONNECTED TO MODEL EXPERIMENTAL     PACKAGE SFR              ON UNIT   1016 AT TIME STEP     24, STRESS PERIOD      2
 UBDSV06 SAVING      EXT-OUTFLOW IN MODEL EXPERIMENTAL     PACKAGE SFR             CONNECTED TO MODEL EXPERIMENTAL     PACKAGE SFR              ON UNIT   1016 AT TIME STEP     24, STRESS PERIOD      2
 UBDSV06 SAVING          STORAGE IN MODEL EXPERIMENTAL     PACKAGE SFR             CONNECTED TO MODEL EXPERIMENTAL     PACKAGE SFR              ON UNIT   1016 AT TIME STEP     24, STRESS PERIOD      2

 HEAD WILL BE SAVED ON UNIT 1021 AT END OF TIME STEP   24, STRESS PERIOD    2

end timestep


start timestep kper="2" kstp="25" mode="normal"

 UBDSV1 SAVING           STO-SS ON UNIT   1020 AT TIME STEP     25, STRESS PERIOD      2
 UBDSV1 SAVING           STO-SY ON UNIT   1020 AT TIME STEP     25, STRESS PERIOD      2
 UBDSV1 SAVING     FLOW-JA-FACE ON UNIT   1020 AT TIME STEP     25, STRESS PERIOD      2
 UBDSV06 SAVING              GHB IN MODEL EXPERIMENTAL     PACKAGE EXPERIMENTAL    CONNECTED TO MODEL EXPERIMENTAL     PACKAGE GHB              ON UNIT   1020 AT TIME STEP     25, STRESS PERIOD      2
 UBDSV06 SAVING              RCH IN MODEL EXPERIMENTAL     PACKAGE EXPERIMENTAL    CONNECTED TO MODEL EXPERIMENTAL     PACKAGE RCH              ON UNIT   1020 AT TIME STEP     25, STRESS PERIOD      2
 UBDSV06 SAVING              SFR IN MODEL EXPERIMENTAL     PACKAGE EXPERIMENTAL    CONNECTED TO MODEL EXPERIMENTAL     PACKAGE SFR              ON UNIT   1020 AT TIME STEP     25, STRESS PERIOD      2
 UBDSV06 SAVING     FLOW-JA-FACE IN MODEL EXPERIMENTAL     PACKAGE SFR             CONNECTED TO MODEL EXPERIMENTAL     PACKAGE SFR              ON UNIT   1016 AT TIME STEP     25, STRESS PERIOD      2
 UBDSV06 SAVING              GWF IN MODEL EXPERIMENTAL     PACKAGE SFR             CONNECTED TO MODEL EXPERIMENTAL     PACKAGE EXPERIMENTAL     ON UNIT   1016 AT TIME STEP     25, STRESS PERIOD      2
 UBDSV06 SAVING         RAINFALL IN MODEL EXPERIMENTAL     PACKAGE SFR             CONNECTED TO MODEL EXPERIMENTAL     PACKAGE SFR              ON UNIT   1016 AT TIME STEP     25, STRESS PERIOD      2
 UBDSV06 SAVING      EVAPORATION IN MODEL EXPERIMENTAL     PACKAGE SFR             CONNECTED TO MODEL EXPERIMENTAL     PACKAGE SFR              ON UNIT   1016 AT TIME STEP     25, STRESS PERIOD      2
 UBDSV06 SAVING           RUNOFF IN MODEL EXPERIMENTAL     PACKAGE SFR             CONNECTED TO MODEL EXPERIMENTAL     PACKAGE SFR              ON UNIT   1016 AT TIME STEP     25, STRESS PERIOD      2
 UBDSV06 SAVING       EXT-INFLOW IN MODEL EXPERIMENTAL     PACKAGE SFR             CONNECTED TO MODEL EXPERIMENTAL     PACKAGE SFR              ON UNIT   1016 AT TIME STEP     25, STRESS PERIOD      2
 UBDSV06 SAVING      EXT-OUTFLOW IN MODEL EXPERIMENTAL     PACKAGE SFR             CONNECTED TO MODEL EXPERIMENTAL     PACKAGE SFR              ON UNIT   1016 AT TIME STEP     25, STRESS PERIOD      2
 UBDSV06 SAVING          STORAGE IN MODEL EXPERIMENTAL     PACKAGE SFR             CONNECTED TO MODEL EXPERIMENTAL     PACKAGE SFR              ON UNIT   1016 AT TIME STEP     25, STRESS PERIOD      2

 HEAD WILL BE SAVED ON UNIT 1021 AT END OF TIME STEP   25, STRESS PERIOD    2

end timestep


start timestep kper="2" kstp="26" mode="normal"

 UBDSV1 SAVING           STO-SS ON UNIT   1020 AT TIME STEP     26, STRESS PERIOD      2
 UBDSV1 SAVING           STO-SY ON UNIT   1020 AT TIME STEP     26, STRESS PERIOD      2
 UBDSV1 SAVING     FLOW-JA-FACE ON UNIT   1020 AT TIME STEP     26, STRESS PERIOD      2
 UBDSV06 SAVING              GHB IN MODEL EXPERIMENTAL     PACKAGE EXPERIMENTAL    CONNECTED TO MODEL EXPERIMENTAL     PACKAGE GHB              ON UNIT   1020 AT TIME STEP     26, STRESS PERIOD      2
 UBDSV06 SAVING              RCH IN MODEL EXPERIMENTAL     PACKAGE EXPERIMENTAL    CONNECTED TO MODEL EXPERIMENTAL     PACKAGE RCH              ON UNIT   1020 AT TIME STEP     26, STRESS PERIOD      2
 UBDSV06 SAVING              SFR IN MODEL EXPERIMENTAL     PACKAGE EXPERIMENTAL    CONNECTED TO MODEL EXPERIMENTAL     PACKAGE SFR              ON UNIT   1020 AT TIME STEP     26, STRESS PERIOD      2
 UBDSV06 SAVING     FLOW-JA-FACE IN MODEL EXPERIMENTAL     PACKAGE SFR             CONNECTED TO MODEL EXPERIMENTAL     PACKAGE SFR              ON UNIT   1016 AT TIME STEP     26, STRESS PERIOD      2
 UBDSV06 SAVING              GWF IN MODEL EXPERIMENTAL     PACKAGE SFR             CONNECTED TO MODEL EXPERIMENTAL     PACKAGE EXPERIMENTAL     ON UNIT   1016 AT TIME STEP     26, STRESS PERIOD      2
 UBDSV06 SAVING         RAINFALL IN MODEL EXPERIMENTAL     PACKAGE SFR             CONNECTED TO MODEL EXPERIMENTAL     PACKAGE SFR              ON UNIT   1016 AT TIME STEP     26, STRESS PERIOD      2
 UBDSV06 SAVING      EVAPORATION IN MODEL EXPERIMENTAL     PACKAGE SFR             CONNECTED TO MODEL EXPERIMENTAL     PACKAGE SFR              ON UNIT   1016 AT TIME STEP     26, STRESS PERIOD      2
 UBDSV06 SAVING           RUNOFF IN MODEL EXPERIMENTAL     PACKAGE SFR             CONNECTED TO MODEL EXPERIMENTAL     PACKAGE SFR              ON UNIT   1016 AT TIME STEP     26, STRESS PERIOD      2
 UBDSV06 SAVING       EXT-INFLOW IN MODEL EXPERIMENTAL     PACKAGE SFR             CONNECTED TO MODEL EXPERIMENTAL     PACKAGE SFR              ON UNIT   1016 AT TIME STEP     26, STRESS PERIOD      2
 UBDSV06 SAVING      EXT-OUTFLOW IN MODEL EXPERIMENTAL     PACKAGE SFR             CONNECTED TO MODEL EXPERIMENTAL     PACKAGE SFR              ON UNIT   1016 AT TIME STEP     26, STRESS PERIOD      2
 UBDSV06 SAVING          STORAGE IN MODEL EXPERIMENTAL     PACKAGE SFR             CONNECTED TO MODEL EXPERIMENTAL     PACKAGE SFR              ON UNIT   1016 AT TIME STEP     26, STRESS PERIOD      2

 HEAD WILL BE SAVED ON UNIT 1021 AT END OF TIME STEP   26, STRESS PERIOD    2

end timestep


start timestep kper="2" kstp="27" mode="normal"

 UBDSV1 SAVING           STO-SS ON UNIT   1020 AT TIME STEP     27, STRESS PERIOD      2
 UBDSV1 SAVING           STO-SY ON UNIT   1020 AT TIME STEP     27, STRESS PERIOD      2
 UBDSV1 SAVING     FLOW-JA-FACE ON UNIT   1020 AT TIME STEP     27, STRESS PERIOD      2
 UBDSV06 SAVING              GHB IN MODEL EXPERIMENTAL     PACKAGE EXPERIMENTAL    CONNECTED TO MODEL EXPERIMENTAL     PACKAGE GHB              ON UNIT   1020 AT TIME STEP     27, STRESS PERIOD      2
 UBDSV06 SAVING              RCH IN MODEL EXPERIMENTAL     PACKAGE EXPERIMENTAL    CONNECTED TO MODEL EXPERIMENTAL     PACKAGE RCH              ON UNIT   1020 AT TIME STEP     27, STRESS PERIOD      2
 UBDSV06 SAVING              SFR IN MODEL EXPERIMENTAL     PACKAGE EXPERIMENTAL    CONNECTED TO MODEL EXPERIMENTAL     PACKAGE SFR              ON UNIT   1020 AT TIME STEP     27, STRESS PERIOD      2
 UBDSV06 SAVING     FLOW-JA-FACE IN MODEL EXPERIMENTAL     PACKAGE SFR             CONNECTED TO MODEL EXPERIMENTAL     PACKAGE SFR              ON UNIT   1016 AT TIME STEP     27, STRESS PERIOD      2
 UBDSV06 SAVING              GWF IN MODEL EXPERIMENTAL     PACKAGE SFR             CONNECTED TO MODEL EXPERIMENTAL     PACKAGE EXPERIMENTAL     ON UNIT   1016 AT TIME STEP     27, STRESS PERIOD      2
 UBDSV06 SAVING         RAINFALL IN MODEL EXPERIMENTAL     PACKAGE SFR             CONNECTED TO MODEL EXPERIMENTAL     PACKAGE SFR              ON UNIT   1016 AT TIME STEP     27, STRESS PERIOD      2
 UBDSV06 SAVING      EVAPORATION IN MODEL EXPERIMENTAL     PACKAGE SFR             CONNECTED TO MODEL EXPERIMENTAL     PACKAGE SFR              ON UNIT   1016 AT TIME STEP     27, STRESS PERIOD      2
 UBDSV06 SAVING           RUNOFF IN MODEL EXPERIMENTAL     PACKAGE SFR             CONNECTED TO MODEL EXPERIMENTAL     PACKAGE SFR              ON UNIT   1016 AT TIME STEP     27, STRESS PERIOD      2
 UBDSV06 SAVING       EXT-INFLOW IN MODEL EXPERIMENTAL     PACKAGE SFR             CONNECTED TO MODEL EXPERIMENTAL     PACKAGE SFR              ON UNIT   1016 AT TIME STEP     27, STRESS PERIOD      2
 UBDSV06 SAVING      EXT-OUTFLOW IN MODEL EXPERIMENTAL     PACKAGE SFR             CONNECTED TO MODEL EXPERIMENTAL     PACKAGE SFR              ON UNIT   1016 AT TIME STEP     27, STRESS PERIOD      2
 UBDSV06 SAVING          STORAGE IN MODEL EXPERIMENTAL     PACKAGE SFR             CONNECTED TO MODEL EXPERIMENTAL     PACKAGE SFR              ON UNIT   1016 AT TIME STEP     27, STRESS PERIOD      2

 HEAD WILL BE SAVED ON UNIT 1021 AT END OF TIME STEP   27, STRESS PERIOD    2

end timestep


start timestep kper="2" kstp="28" mode="normal"

 UBDSV1 SAVING           STO-SS ON UNIT   1020 AT TIME STEP     28, STRESS PERIOD      2
 UBDSV1 SAVING           STO-SY ON UNIT   1020 AT TIME STEP     28, STRESS PERIOD      2
 UBDSV1 SAVING     FLOW-JA-FACE ON UNIT   1020 AT TIME STEP     28, STRESS PERIOD      2
 UBDSV06 SAVING              GHB IN MODEL EXPERIMENTAL     PACKAGE EXPERIMENTAL    CONNECTED TO MODEL EXPERIMENTAL     PACKAGE GHB              ON UNIT   1020 AT TIME STEP     28, STRESS PERIOD      2
 UBDSV06 SAVING              RCH IN MODEL EXPERIMENTAL     PACKAGE EXPERIMENTAL    CONNECTED TO MODEL EXPERIMENTAL     PACKAGE RCH              ON UNIT   1020 AT TIME STEP     28, STRESS PERIOD      2
 UBDSV06 SAVING              SFR IN MODEL EXPERIMENTAL     PACKAGE EXPERIMENTAL    CONNECTED TO MODEL EXPERIMENTAL     PACKAGE SFR              ON UNIT   1020 AT TIME STEP     28, STRESS PERIOD      2
 UBDSV06 SAVING     FLOW-JA-FACE IN MODEL EXPERIMENTAL     PACKAGE SFR             CONNECTED TO MODEL EXPERIMENTAL     PACKAGE SFR              ON UNIT   1016 AT TIME STEP     28, STRESS PERIOD      2
 UBDSV06 SAVING              GWF IN MODEL EXPERIMENTAL     PACKAGE SFR             CONNECTED TO MODEL EXPERIMENTAL     PACKAGE EXPERIMENTAL     ON UNIT   1016 AT TIME STEP     28, STRESS PERIOD      2
 UBDSV06 SAVING         RAINFALL IN MODEL EXPERIMENTAL     PACKAGE SFR             CONNECTED TO MODEL EXPERIMENTAL     PACKAGE SFR              ON UNIT   1016 AT TIME STEP     28, STRESS PERIOD      2
 UBDSV06 SAVING      EVAPORATION IN MODEL EXPERIMENTAL     PACKAGE SFR             CONNECTED TO MODEL EXPERIMENTAL     PACKAGE SFR              ON UNIT   1016 AT TIME STEP     28, STRESS PERIOD      2
 UBDSV06 SAVING           RUNOFF IN MODEL EXPERIMENTAL     PACKAGE SFR             CONNECTED TO MODEL EXPERIMENTAL     PACKAGE SFR              ON UNIT   1016 AT TIME STEP     28, STRESS PERIOD      2
 UBDSV06 SAVING       EXT-INFLOW IN MODEL EXPERIMENTAL     PACKAGE SFR             CONNECTED TO MODEL EXPERIMENTAL     PACKAGE SFR              ON UNIT   1016 AT TIME STEP     28, STRESS PERIOD      2
 UBDSV06 SAVING      EXT-OUTFLOW IN MODEL EXPERIMENTAL     PACKAGE SFR             CONNECTED TO MODEL EXPERIMENTAL     PACKAGE SFR              ON UNIT   1016 AT TIME STEP     28, STRESS PERIOD      2
 UBDSV06 SAVING          STORAGE IN MODEL EXPERIMENTAL     PACKAGE SFR             CONNECTED TO MODEL EXPERIMENTAL     PACKAGE SFR              ON UNIT   1016 AT TIME STEP     28, STRESS PERIOD      2

 HEAD WILL BE SAVED ON UNIT 1021 AT END OF TIME STEP   28, STRESS PERIOD    2

end timestep


start timestep kper="2" kstp="29" mode="normal"

 UBDSV1 SAVING           STO-SS ON UNIT   1020 AT TIME STEP     29, STRESS PERIOD      2
 UBDSV1 SAVING           STO-SY ON UNIT   1020 AT TIME STEP     29, STRESS PERIOD      2
 UBDSV1 SAVING     FLOW-JA-FACE ON UNIT   1020 AT TIME STEP     29, STRESS PERIOD      2
 UBDSV06 SAVING              GHB IN MODEL EXPERIMENTAL     PACKAGE EXPERIMENTAL    CONNECTED TO MODEL EXPERIMENTAL     PACKAGE GHB              ON UNIT   1020 AT TIME STEP     29, STRESS PERIOD      2
 UBDSV06 SAVING              RCH IN MODEL EXPERIMENTAL     PACKAGE EXPERIMENTAL    CONNECTED TO MODEL EXPERIMENTAL     PACKAGE RCH              ON UNIT   1020 AT TIME STEP     29, STRESS PERIOD      2
 UBDSV06 SAVING              SFR IN MODEL EXPERIMENTAL     PACKAGE EXPERIMENTAL    CONNECTED TO MODEL EXPERIMENTAL     PACKAGE SFR              ON UNIT   1020 AT TIME STEP     29, STRESS PERIOD      2
 UBDSV06 SAVING     FLOW-JA-FACE IN MODEL EXPERIMENTAL     PACKAGE SFR             CONNECTED TO MODEL EXPERIMENTAL     PACKAGE SFR              ON UNIT   1016 AT TIME STEP     29, STRESS PERIOD      2
 UBDSV06 SAVING              GWF IN MODEL EXPERIMENTAL     PACKAGE SFR             CONNECTED TO MODEL EXPERIMENTAL     PACKAGE EXPERIMENTAL     ON UNIT   1016 AT TIME STEP     29, STRESS PERIOD      2
 UBDSV06 SAVING         RAINFALL IN MODEL EXPERIMENTAL     PACKAGE SFR             CONNECTED TO MODEL EXPERIMENTAL     PACKAGE SFR              ON UNIT   1016 AT TIME STEP     29, STRESS PERIOD      2
 UBDSV06 SAVING      EVAPORATION IN MODEL EXPERIMENTAL     PACKAGE SFR             CONNECTED TO MODEL EXPERIMENTAL     PACKAGE SFR              ON UNIT   1016 AT TIME STEP     29, STRESS PERIOD      2
 UBDSV06 SAVING           RUNOFF IN MODEL EXPERIMENTAL     PACKAGE SFR             CONNECTED TO MODEL EXPERIMENTAL     PACKAGE SFR              ON UNIT   1016 AT TIME STEP     29, STRESS PERIOD      2
 UBDSV06 SAVING       EXT-INFLOW IN MODEL EXPERIMENTAL     PACKAGE SFR             CONNECTED TO MODEL EXPERIMENTAL     PACKAGE SFR              ON UNIT   1016 AT TIME STEP     29, STRESS PERIOD      2
 UBDSV06 SAVING      EXT-OUTFLOW IN MODEL EXPERIMENTAL     PACKAGE SFR             CONNECTED TO MODEL EXPERIMENTAL     PACKAGE SFR              ON UNIT   1016 AT TIME STEP     29, STRESS PERIOD      2
 UBDSV06 SAVING          STORAGE IN MODEL EXPERIMENTAL     PACKAGE SFR             CONNECTED TO MODEL EXPERIMENTAL     PACKAGE SFR              ON UNIT   1016 AT TIME STEP     29, STRESS PERIOD      2

 HEAD WILL BE SAVED ON UNIT 1021 AT END OF TIME STEP   29, STRESS PERIOD    2

end timestep


start timestep kper="2" kstp="30" mode="normal"

 UBDSV1 SAVING           STO-SS ON UNIT   1020 AT TIME STEP     30, STRESS PERIOD      2
 UBDSV1 SAVING           STO-SY ON UNIT   1020 AT TIME STEP     30, STRESS PERIOD      2
 UBDSV1 SAVING     FLOW-JA-FACE ON UNIT   1020 AT TIME STEP     30, STRESS PERIOD      2
 UBDSV06 SAVING              GHB IN MODEL EXPERIMENTAL     PACKAGE EXPERIMENTAL    CONNECTED TO MODEL EXPERIMENTAL     PACKAGE GHB              ON UNIT   1020 AT TIME STEP     30, STRESS PERIOD      2
 UBDSV06 SAVING              RCH IN MODEL EXPERIMENTAL     PACKAGE EXPERIMENTAL    CONNECTED TO MODEL EXPERIMENTAL     PACKAGE RCH              ON UNIT   1020 AT TIME STEP     30, STRESS PERIOD      2
 UBDSV06 SAVING              SFR IN MODEL EXPERIMENTAL     PACKAGE EXPERIMENTAL    CONNECTED TO MODEL EXPERIMENTAL     PACKAGE SFR              ON UNIT   1020 AT TIME STEP     30, STRESS PERIOD      2
 UBDSV06 SAVING     FLOW-JA-FACE IN MODEL EXPERIMENTAL     PACKAGE SFR             CONNECTED TO MODEL EXPERIMENTAL     PACKAGE SFR              ON UNIT   1016 AT TIME STEP     30, STRESS PERIOD      2
 UBDSV06 SAVING              GWF IN MODEL EXPERIMENTAL     PACKAGE SFR             CONNECTED TO MODEL EXPERIMENTAL     PACKAGE EXPERIMENTAL     ON UNIT   1016 AT TIME STEP     30, STRESS PERIOD      2
 UBDSV06 SAVING         RAINFALL IN MODEL EXPERIMENTAL     PACKAGE SFR             CONNECTED TO MODEL EXPERIMENTAL     PACKAGE SFR              ON UNIT   1016 AT TIME STEP     30, STRESS PERIOD      2
 UBDSV06 SAVING      EVAPORATION IN MODEL EXPERIMENTAL     PACKAGE SFR             CONNECTED TO MODEL EXPERIMENTAL     PACKAGE SFR              ON UNIT   1016 AT TIME STEP     30, STRESS PERIOD      2
 UBDSV06 SAVING           RUNOFF IN MODEL EXPERIMENTAL     PACKAGE SFR             CONNECTED TO MODEL EXPERIMENTAL     PACKAGE SFR              ON UNIT   1016 AT TIME STEP     30, STRESS PERIOD      2
 UBDSV06 SAVING       EXT-INFLOW IN MODEL EXPERIMENTAL     PACKAGE SFR             CONNECTED TO MODEL EXPERIMENTAL     PACKAGE SFR              ON UNIT   1016 AT TIME STEP     30, STRESS PERIOD      2
 UBDSV06 SAVING      EXT-OUTFLOW IN MODEL EXPERIMENTAL     PACKAGE SFR             CONNECTED TO MODEL EXPERIMENTAL     PACKAGE SFR              ON UNIT   1016 AT TIME STEP     30, STRESS PERIOD      2
 UBDSV06 SAVING          STORAGE IN MODEL EXPERIMENTAL     PACKAGE SFR             CONNECTED TO MODEL EXPERIMENTAL     PACKAGE SFR              ON UNIT   1016 AT TIME STEP     30, STRESS PERIOD      2

 HEAD WILL BE SAVED ON UNIT 1021 AT END OF TIME STEP   30, STRESS PERIOD    2

end timestep


start timestep kper="2" kstp="31" mode="normal"

 UBDSV1 SAVING           STO-SS ON UNIT   1020 AT TIME STEP     31, STRESS PERIOD      2
 UBDSV1 SAVING           STO-SY ON UNIT   1020 AT TIME STEP     31, STRESS PERIOD      2
 UBDSV1 SAVING     FLOW-JA-FACE ON UNIT   1020 AT TIME STEP     31, STRESS PERIOD      2
 UBDSV06 SAVING              GHB IN MODEL EXPERIMENTAL     PACKAGE EXPERIMENTAL    CONNECTED TO MODEL EXPERIMENTAL     PACKAGE GHB              ON UNIT   1020 AT TIME STEP     31, STRESS PERIOD      2
 UBDSV06 SAVING              RCH IN MODEL EXPERIMENTAL     PACKAGE EXPERIMENTAL    CONNECTED TO MODEL EXPERIMENTAL     PACKAGE RCH              ON UNIT   1020 AT TIME STEP     31, STRESS PERIOD      2
 UBDSV06 SAVING              SFR IN MODEL EXPERIMENTAL     PACKAGE EXPERIMENTAL    CONNECTED TO MODEL EXPERIMENTAL     PACKAGE SFR              ON UNIT   1020 AT TIME STEP     31, STRESS PERIOD      2
 UBDSV06 SAVING     FLOW-JA-FACE IN MODEL EXPERIMENTAL     PACKAGE SFR             CONNECTED TO MODEL EXPERIMENTAL     PACKAGE SFR              ON UNIT   1016 AT TIME STEP     31, STRESS PERIOD      2
 UBDSV06 SAVING              GWF IN MODEL EXPERIMENTAL     PACKAGE SFR             CONNECTED TO MODEL EXPERIMENTAL     PACKAGE EXPERIMENTAL     ON UNIT   1016 AT TIME STEP     31, STRESS PERIOD      2
 UBDSV06 SAVING         RAINFALL IN MODEL EXPERIMENTAL     PACKAGE SFR             CONNECTED TO MODEL EXPERIMENTAL     PACKAGE SFR              ON UNIT   1016 AT TIME STEP     31, STRESS PERIOD      2
 UBDSV06 SAVING      EVAPORATION IN MODEL EXPERIMENTAL     PACKAGE SFR             CONNECTED TO MODEL EXPERIMENTAL     PACKAGE SFR              ON UNIT   1016 AT TIME STEP     31, STRESS PERIOD      2
 UBDSV06 SAVING           RUNOFF IN MODEL EXPERIMENTAL     PACKAGE SFR             CONNECTED TO MODEL EXPERIMENTAL     PACKAGE SFR              ON UNIT   1016 AT TIME STEP     31, STRESS PERIOD      2
 UBDSV06 SAVING       EXT-INFLOW IN MODEL EXPERIMENTAL     PACKAGE SFR             CONNECTED TO MODEL EXPERIMENTAL     PACKAGE SFR              ON UNIT   1016 AT TIME STEP     31, STRESS PERIOD      2
 UBDSV06 SAVING      EXT-OUTFLOW IN MODEL EXPERIMENTAL     PACKAGE SFR             CONNECTED TO MODEL EXPERIMENTAL     PACKAGE SFR              ON UNIT   1016 AT TIME STEP     31, STRESS PERIOD      2
 UBDSV06 SAVING          STORAGE IN MODEL EXPERIMENTAL     PACKAGE SFR             CONNECTED TO MODEL EXPERIMENTAL     PACKAGE SFR              ON UNIT   1016 AT TIME STEP     31, STRESS PERIOD      2

 HEAD WILL BE SAVED ON UNIT 1021 AT END OF TIME STEP   31, STRESS PERIOD    2

end timestep


start timestep kper="2" kstp="32" mode="normal"

 UBDSV1 SAVING           STO-SS ON UNIT   1020 AT TIME STEP     32, STRESS PERIOD      2
 UBDSV1 SAVING           STO-SY ON UNIT   1020 AT TIME STEP     32, STRESS PERIOD      2
 UBDSV1 SAVING     FLOW-JA-FACE ON UNIT   1020 AT TIME STEP     32, STRESS PERIOD      2
 UBDSV06 SAVING              GHB IN MODEL EXPERIMENTAL     PACKAGE EXPERIMENTAL    CONNECTED TO MODEL EXPERIMENTAL     PACKAGE GHB              ON UNIT   1020 AT TIME STEP     32, STRESS PERIOD      2
 UBDSV06 SAVING              RCH IN MODEL EXPERIMENTAL     PACKAGE EXPERIMENTAL    CONNECTED TO MODEL EXPERIMENTAL     PACKAGE RCH              ON UNIT   1020 AT TIME STEP     32, STRESS PERIOD      2
 UBDSV06 SAVING              SFR IN MODEL EXPERIMENTAL     PACKAGE EXPERIMENTAL    CONNECTED TO MODEL EXPERIMENTAL     PACKAGE SFR              ON UNIT   1020 AT TIME STEP     32, STRESS PERIOD      2
 UBDSV06 SAVING     FLOW-JA-FACE IN MODEL EXPERIMENTAL     PACKAGE SFR             CONNECTED TO MODEL EXPERIMENTAL     PACKAGE SFR              ON UNIT   1016 AT TIME STEP     32, STRESS PERIOD      2
 UBDSV06 SAVING              GWF IN MODEL EXPERIMENTAL     PACKAGE SFR             CONNECTED TO MODEL EXPERIMENTAL     PACKAGE EXPERIMENTAL     ON UNIT   1016 AT TIME STEP     32, STRESS PERIOD      2
 UBDSV06 SAVING         RAINFALL IN MODEL EXPERIMENTAL     PACKAGE SFR             CONNECTED TO MODEL EXPERIMENTAL     PACKAGE SFR              ON UNIT   1016 AT TIME STEP     32, STRESS PERIOD      2
 UBDSV06 SAVING      EVAPORATION IN MODEL EXPERIMENTAL     PACKAGE SFR             CONNECTED TO MODEL EXPERIMENTAL     PACKAGE SFR              ON UNIT   1016 AT TIME STEP     32, STRESS PERIOD      2
 UBDSV06 SAVING           RUNOFF IN MODEL EXPERIMENTAL     PACKAGE SFR             CONNECTED TO MODEL EXPERIMENTAL     PACKAGE SFR              ON UNIT   1016 AT TIME STEP     32, STRESS PERIOD      2
 UBDSV06 SAVING       EXT-INFLOW IN MODEL EXPERIMENTAL     PACKAGE SFR             CONNECTED TO MODEL EXPERIMENTAL     PACKAGE SFR              ON UNIT   1016 AT TIME STEP     32, STRESS PERIOD      2
 UBDSV06 SAVING      EXT-OUTFLOW IN MODEL EXPERIMENTAL     PACKAGE SFR             CONNECTED TO MODEL EXPERIMENTAL     PACKAGE SFR              ON UNIT   1016 AT TIME STEP     32, STRESS PERIOD      2
 UBDSV06 SAVING          STORAGE IN MODEL EXPERIMENTAL     PACKAGE SFR             CONNECTED TO MODEL EXPERIMENTAL     PACKAGE SFR              ON UNIT   1016 AT TIME STEP     32, STRESS PERIOD      2

 HEAD WILL BE SAVED ON UNIT 1021 AT END OF TIME STEP   32, STRESS PERIOD    2

end timestep


start timestep kper="2" kstp="33" mode="normal"

 UBDSV1 SAVING           STO-SS ON UNIT   1020 AT TIME STEP     33, STRESS PERIOD      2
 UBDSV1 SAVING           STO-SY ON UNIT   1020 AT TIME STEP     33, STRESS PERIOD      2
 UBDSV1 SAVING     FLOW-JA-FACE ON UNIT   1020 AT TIME STEP     33, STRESS PERIOD      2
 UBDSV06 SAVING              GHB IN MODEL EXPERIMENTAL     PACKAGE EXPERIMENTAL    CONNECTED TO MODEL EXPERIMENTAL     PACKAGE GHB              ON UNIT   1020 AT TIME STEP     33, STRESS PERIOD      2
 UBDSV06 SAVING              RCH IN MODEL EXPERIMENTAL     PACKAGE EXPERIMENTAL    CONNECTED TO MODEL EXPERIMENTAL     PACKAGE RCH              ON UNIT   1020 AT TIME STEP     33, STRESS PERIOD      2
 UBDSV06 SAVING              SFR IN MODEL EXPERIMENTAL     PACKAGE EXPERIMENTAL    CONNECTED TO MODEL EXPERIMENTAL     PACKAGE SFR              ON UNIT   1020 AT TIME STEP     33, STRESS PERIOD      2
 UBDSV06 SAVING     FLOW-JA-FACE IN MODEL EXPERIMENTAL     PACKAGE SFR             CONNECTED TO MODEL EXPERIMENTAL     PACKAGE SFR              ON UNIT   1016 AT TIME STEP     33, STRESS PERIOD      2
 UBDSV06 SAVING              GWF IN MODEL EXPERIMENTAL     PACKAGE SFR             CONNECTED TO MODEL EXPERIMENTAL     PACKAGE EXPERIMENTAL     ON UNIT   1016 AT TIME STEP     33, STRESS PERIOD      2
 UBDSV06 SAVING         RAINFALL IN MODEL EXPERIMENTAL     PACKAGE SFR             CONNECTED TO MODEL EXPERIMENTAL     PACKAGE SFR              ON UNIT   1016 AT TIME STEP     33, STRESS PERIOD      2
 UBDSV06 SAVING      EVAPORATION IN MODEL EXPERIMENTAL     PACKAGE SFR             CONNECTED TO MODEL EXPERIMENTAL     PACKAGE SFR              ON UNIT   1016 AT TIME STEP     33, STRESS PERIOD      2
 UBDSV06 SAVING           RUNOFF IN MODEL EXPERIMENTAL     PACKAGE SFR             CONNECTED TO MODEL EXPERIMENTAL     PACKAGE SFR              ON UNIT   1016 AT TIME STEP     33, STRESS PERIOD      2
 UBDSV06 SAVING       EXT-INFLOW IN MODEL EXPERIMENTAL     PACKAGE SFR             CONNECTED TO MODEL EXPERIMENTAL     PACKAGE SFR              ON UNIT   1016 AT TIME STEP     33, STRESS PERIOD      2
 UBDSV06 SAVING      EXT-OUTFLOW IN MODEL EXPERIMENTAL     PACKAGE SFR             CONNECTED TO MODEL EXPERIMENTAL     PACKAGE SFR              ON UNIT   1016 AT TIME STEP     33, STRESS PERIOD      2
 UBDSV06 SAVING          STORAGE IN MODEL EXPERIMENTAL     PACKAGE SFR             CONNECTED TO MODEL EXPERIMENTAL     PACKAGE SFR              ON UNIT   1016 AT TIME STEP     33, STRESS PERIOD      2

 HEAD WILL BE SAVED ON UNIT 1021 AT END OF TIME STEP   33, STRESS PERIOD    2

end timestep


start timestep kper="2" kstp="34" mode="normal"

 UBDSV1 SAVING           STO-SS ON UNIT   1020 AT TIME STEP     34, STRESS PERIOD      2
 UBDSV1 SAVING           STO-SY ON UNIT   1020 AT TIME STEP     34, STRESS PERIOD      2
 UBDSV1 SAVING     FLOW-JA-FACE ON UNIT   1020 AT TIME STEP     34, STRESS PERIOD      2
 UBDSV06 SAVING              GHB IN MODEL EXPERIMENTAL     PACKAGE EXPERIMENTAL    CONNECTED TO MODEL EXPERIMENTAL     PACKAGE GHB              ON UNIT   1020 AT TIME STEP     34, STRESS PERIOD      2
 UBDSV06 SAVING              RCH IN MODEL EXPERIMENTAL     PACKAGE EXPERIMENTAL    CONNECTED TO MODEL EXPERIMENTAL     PACKAGE RCH              ON UNIT   1020 AT TIME STEP     34, STRESS PERIOD      2
 UBDSV06 SAVING              SFR IN MODEL EXPERIMENTAL     PACKAGE EXPERIMENTAL    CONNECTED TO MODEL EXPERIMENTAL     PACKAGE SFR              ON UNIT   1020 AT TIME STEP     34, STRESS PERIOD      2
 UBDSV06 SAVING     FLOW-JA-FACE IN MODEL EXPERIMENTAL     PACKAGE SFR             CONNECTED TO MODEL EXPERIMENTAL     PACKAGE SFR              ON UNIT   1016 AT TIME STEP     34, STRESS PERIOD      2
 UBDSV06 SAVING              GWF IN MODEL EXPERIMENTAL     PACKAGE SFR             CONNECTED TO MODEL EXPERIMENTAL     PACKAGE EXPERIMENTAL     ON UNIT   1016 AT TIME STEP     34, STRESS PERIOD      2
 UBDSV06 SAVING         RAINFALL IN MODEL EXPERIMENTAL     PACKAGE SFR             CONNECTED TO MODEL EXPERIMENTAL     PACKAGE SFR              ON UNIT   1016 AT TIME STEP     34, STRESS PERIOD      2
 UBDSV06 SAVING      EVAPORATION IN MODEL EXPERIMENTAL     PACKAGE SFR             CONNECTED TO MODEL EXPERIMENTAL     PACKAGE SFR              ON UNIT   1016 AT TIME STEP     34, STRESS PERIOD      2
 UBDSV06 SAVING           RUNOFF IN MODEL EXPERIMENTAL     PACKAGE SFR             CONNECTED TO MODEL EXPERIMENTAL     PACKAGE SFR              ON UNIT   1016 AT TIME STEP     34, STRESS PERIOD      2
 UBDSV06 SAVING       EXT-INFLOW IN MODEL EXPERIMENTAL     PACKAGE SFR             CONNECTED TO MODEL EXPERIMENTAL     PACKAGE SFR              ON UNIT   1016 AT TIME STEP     34, STRESS PERIOD      2
 UBDSV06 SAVING      EXT-OUTFLOW IN MODEL EXPERIMENTAL     PACKAGE SFR             CONNECTED TO MODEL EXPERIMENTAL     PACKAGE SFR              ON UNIT   1016 AT TIME STEP     34, STRESS PERIOD      2
 UBDSV06 SAVING          STORAGE IN MODEL EXPERIMENTAL     PACKAGE SFR             CONNECTED TO MODEL EXPERIMENTAL     PACKAGE SFR              ON UNIT   1016 AT TIME STEP     34, STRESS PERIOD      2

 HEAD WILL BE SAVED ON UNIT 1021 AT END OF TIME STEP   34, STRESS PERIOD    2

end timestep


start timestep kper="2" kstp="35" mode="normal"

 UBDSV1 SAVING           STO-SS ON UNIT   1020 AT TIME STEP     35, STRESS PERIOD      2
 UBDSV1 SAVING           STO-SY ON UNIT   1020 AT TIME STEP     35, STRESS PERIOD      2
 UBDSV1 SAVING     FLOW-JA-FACE ON UNIT   1020 AT TIME STEP     35, STRESS PERIOD      2
 UBDSV06 SAVING              GHB IN MODEL EXPERIMENTAL     PACKAGE EXPERIMENTAL    CONNECTED TO MODEL EXPERIMENTAL     PACKAGE GHB              ON UNIT   1020 AT TIME STEP     35, STRESS PERIOD      2
 UBDSV06 SAVING              RCH IN MODEL EXPERIMENTAL     PACKAGE EXPERIMENTAL    CONNECTED TO MODEL EXPERIMENTAL     PACKAGE RCH              ON UNIT   1020 AT TIME STEP     35, STRESS PERIOD      2
 UBDSV06 SAVING              SFR IN MODEL EXPERIMENTAL     PACKAGE EXPERIMENTAL    CONNECTED TO MODEL EXPERIMENTAL     PACKAGE SFR              ON UNIT   1020 AT TIME STEP     35, STRESS PERIOD      2
 UBDSV06 SAVING     FLOW-JA-FACE IN MODEL EXPERIMENTAL     PACKAGE SFR             CONNECTED TO MODEL EXPERIMENTAL     PACKAGE SFR              ON UNIT   1016 AT TIME STEP     35, STRESS PERIOD      2
 UBDSV06 SAVING              GWF IN MODEL EXPERIMENTAL     PACKAGE SFR             CONNECTED TO MODEL EXPERIMENTAL     PACKAGE EXPERIMENTAL     ON UNIT   1016 AT TIME STEP     35, STRESS PERIOD      2
 UBDSV06 SAVING         RAINFALL IN MODEL EXPERIMENTAL     PACKAGE SFR             CONNECTED TO MODEL EXPERIMENTAL     PACKAGE SFR              ON UNIT   1016 AT TIME STEP     35, STRESS PERIOD      2
 UBDSV06 SAVING      EVAPORATION IN MODEL EXPERIMENTAL     PACKAGE SFR             CONNECTED TO MODEL EXPERIMENTAL     PACKAGE SFR              ON UNIT   1016 AT TIME STEP     35, STRESS PERIOD      2
 UBDSV06 SAVING           RUNOFF IN MODEL EXPERIMENTAL     PACKAGE SFR             CONNECTED TO MODEL EXPERIMENTAL     PACKAGE SFR              ON UNIT   1016 AT TIME STEP     35, STRESS PERIOD      2
 UBDSV06 SAVING       EXT-INFLOW IN MODEL EXPERIMENTAL     PACKAGE SFR             CONNECTED TO MODEL EXPERIMENTAL     PACKAGE SFR              ON UNIT   1016 AT TIME STEP     35, STRESS PERIOD      2
 UBDSV06 SAVING      EXT-OUTFLOW IN MODEL EXPERIMENTAL     PACKAGE SFR             CONNECTED TO MODEL EXPERIMENTAL     PACKAGE SFR              ON UNIT   1016 AT TIME STEP     35, STRESS PERIOD      2
 UBDSV06 SAVING          STORAGE IN MODEL EXPERIMENTAL     PACKAGE SFR             CONNECTED TO MODEL EXPERIMENTAL     PACKAGE SFR              ON UNIT   1016 AT TIME STEP     35, STRESS PERIOD      2

 HEAD WILL BE SAVED ON UNIT 1021 AT END OF TIME STEP   35, STRESS PERIOD    2

end timestep


start timestep kper="2" kstp="36" mode="normal"

 UBDSV1 SAVING           STO-SS ON UNIT   1020 AT TIME STEP     36, STRESS PERIOD      2
 UBDSV1 SAVING           STO-SY ON UNIT   1020 AT TIME STEP     36, STRESS PERIOD      2
 UBDSV1 SAVING     FLOW-JA-FACE ON UNIT   1020 AT TIME STEP     36, STRESS PERIOD      2
 UBDSV06 SAVING              GHB IN MODEL EXPERIMENTAL     PACKAGE EXPERIMENTAL    CONNECTED TO MODEL EXPERIMENTAL     PACKAGE GHB              ON UNIT   1020 AT TIME STEP     36, STRESS PERIOD      2
 UBDSV06 SAVING              RCH IN MODEL EXPERIMENTAL     PACKAGE EXPERIMENTAL    CONNECTED TO MODEL EXPERIMENTAL     PACKAGE RCH              ON UNIT   1020 AT TIME STEP     36, STRESS PERIOD      2
 UBDSV06 SAVING              SFR IN MODEL EXPERIMENTAL     PACKAGE EXPERIMENTAL    CONNECTED TO MODEL EXPERIMENTAL     PACKAGE SFR              ON UNIT   1020 AT TIME STEP     36, STRESS PERIOD      2
 UBDSV06 SAVING     FLOW-JA-FACE IN MODEL EXPERIMENTAL     PACKAGE SFR             CONNECTED TO MODEL EXPERIMENTAL     PACKAGE SFR              ON UNIT   1016 AT TIME STEP     36, STRESS PERIOD      2
 UBDSV06 SAVING              GWF IN MODEL EXPERIMENTAL     PACKAGE SFR             CONNECTED TO MODEL EXPERIMENTAL     PACKAGE EXPERIMENTAL     ON UNIT   1016 AT TIME STEP     36, STRESS PERIOD      2
 UBDSV06 SAVING         RAINFALL IN MODEL EXPERIMENTAL     PACKAGE SFR             CONNECTED TO MODEL EXPERIMENTAL     PACKAGE SFR              ON UNIT   1016 AT TIME STEP     36, STRESS PERIOD      2
 UBDSV06 SAVING      EVAPORATION IN MODEL EXPERIMENTAL     PACKAGE SFR             CONNECTED TO MODEL EXPERIMENTAL     PACKAGE SFR              ON UNIT   1016 AT TIME STEP     36, STRESS PERIOD      2
 UBDSV06 SAVING           RUNOFF IN MODEL EXPERIMENTAL     PACKAGE SFR             CONNECTED TO MODEL EXPERIMENTAL     PACKAGE SFR              ON UNIT   1016 AT TIME STEP     36, STRESS PERIOD      2
 UBDSV06 SAVING       EXT-INFLOW IN MODEL EXPERIMENTAL     PACKAGE SFR             CONNECTED TO MODEL EXPERIMENTAL     PACKAGE SFR              ON UNIT   1016 AT TIME STEP     36, STRESS PERIOD      2
 UBDSV06 SAVING      EXT-OUTFLOW IN MODEL EXPERIMENTAL     PACKAGE SFR             CONNECTED TO MODEL EXPERIMENTAL     PACKAGE SFR              ON UNIT   1016 AT TIME STEP     36, STRESS PERIOD      2
 UBDSV06 SAVING          STORAGE IN MODEL EXPERIMENTAL     PACKAGE SFR             CONNECTED TO MODEL EXPERIMENTAL     PACKAGE SFR              ON UNIT   1016 AT TIME STEP     36, STRESS PERIOD      2

 HEAD WILL BE SAVED ON UNIT 1021 AT END OF TIME STEP   36, STRESS PERIOD    2

end timestep


start timestep kper="2" kstp="37" mode="normal"

 UBDSV1 SAVING           STO-SS ON UNIT   1020 AT TIME STEP     37, STRESS PERIOD      2
 UBDSV1 SAVING           STO-SY ON UNIT   1020 AT TIME STEP     37, STRESS PERIOD      2
 UBDSV1 SAVING     FLOW-JA-FACE ON UNIT   1020 AT TIME STEP     37, STRESS PERIOD      2
 UBDSV06 SAVING              GHB IN MODEL EXPERIMENTAL     PACKAGE EXPERIMENTAL    CONNECTED TO MODEL EXPERIMENTAL     PACKAGE GHB              ON UNIT   1020 AT TIME STEP     37, STRESS PERIOD      2
 UBDSV06 SAVING              RCH IN MODEL EXPERIMENTAL     PACKAGE EXPERIMENTAL    CONNECTED TO MODEL EXPERIMENTAL     PACKAGE RCH              ON UNIT   1020 AT TIME STEP     37, STRESS PERIOD      2
 UBDSV06 SAVING              SFR IN MODEL EXPERIMENTAL     PACKAGE EXPERIMENTAL    CONNECTED TO MODEL EXPERIMENTAL     PACKAGE SFR              ON UNIT   1020 AT TIME STEP     37, STRESS PERIOD      2
 UBDSV06 SAVING     FLOW-JA-FACE IN MODEL EXPERIMENTAL     PACKAGE SFR             CONNECTED TO MODEL EXPERIMENTAL     PACKAGE SFR              ON UNIT   1016 AT TIME STEP     37, STRESS PERIOD      2
 UBDSV06 SAVING              GWF IN MODEL EXPERIMENTAL     PACKAGE SFR             CONNECTED TO MODEL EXPERIMENTAL     PACKAGE EXPERIMENTAL     ON UNIT   1016 AT TIME STEP     37, STRESS PERIOD      2
 UBDSV06 SAVING         RAINFALL IN MODEL EXPERIMENTAL     PACKAGE SFR             CONNECTED TO MODEL EXPERIMENTAL     PACKAGE SFR              ON UNIT   1016 AT TIME STEP     37, STRESS PERIOD      2
 UBDSV06 SAVING      EVAPORATION IN MODEL EXPERIMENTAL     PACKAGE SFR             CONNECTED TO MODEL EXPERIMENTAL     PACKAGE SFR              ON UNIT   1016 AT TIME STEP     37, STRESS PERIOD      2
 UBDSV06 SAVING           RUNOFF IN MODEL EXPERIMENTAL     PACKAGE SFR             CONNECTED TO MODEL EXPERIMENTAL     PACKAGE SFR              ON UNIT   1016 AT TIME STEP     37, STRESS PERIOD      2
 UBDSV06 SAVING       EXT-INFLOW IN MODEL EXPERIMENTAL     PACKAGE SFR             CONNECTED TO MODEL EXPERIMENTAL     PACKAGE SFR              ON UNIT   1016 AT TIME STEP     37, STRESS PERIOD      2
 UBDSV06 SAVING      EXT-OUTFLOW IN MODEL EXPERIMENTAL     PACKAGE SFR             CONNECTED TO MODEL EXPERIMENTAL     PACKAGE SFR              ON UNIT   1016 AT TIME STEP     37, STRESS PERIOD      2
 UBDSV06 SAVING          STORAGE IN MODEL EXPERIMENTAL     PACKAGE SFR             CONNECTED TO MODEL EXPERIMENTAL     PACKAGE SFR              ON UNIT   1016 AT TIME STEP     37, STRESS PERIOD      2

 HEAD WILL BE SAVED ON UNIT 1021 AT END OF TIME STEP   37, STRESS PERIOD    2

end timestep


start timestep kper="2" kstp="38" mode="normal"

 UBDSV1 SAVING           STO-SS ON UNIT   1020 AT TIME STEP     38, STRESS PERIOD      2
 UBDSV1 SAVING           STO-SY ON UNIT   1020 AT TIME STEP     38, STRESS PERIOD      2
 UBDSV1 SAVING     FLOW-JA-FACE ON UNIT   1020 AT TIME STEP     38, STRESS PERIOD      2
 UBDSV06 SAVING              GHB IN MODEL EXPERIMENTAL     PACKAGE EXPERIMENTAL    CONNECTED TO MODEL EXPERIMENTAL     PACKAGE GHB              ON UNIT   1020 AT TIME STEP     38, STRESS PERIOD      2
 UBDSV06 SAVING              RCH IN MODEL EXPERIMENTAL     PACKAGE EXPERIMENTAL    CONNECTED TO MODEL EXPERIMENTAL     PACKAGE RCH              ON UNIT   1020 AT TIME STEP     38, STRESS PERIOD      2
 UBDSV06 SAVING              SFR IN MODEL EXPERIMENTAL     PACKAGE EXPERIMENTAL    CONNECTED TO MODEL EXPERIMENTAL     PACKAGE SFR              ON UNIT   1020 AT TIME STEP     38, STRESS PERIOD      2
 UBDSV06 SAVING     FLOW-JA-FACE IN MODEL EXPERIMENTAL     PACKAGE SFR             CONNECTED TO MODEL EXPERIMENTAL     PACKAGE SFR              ON UNIT   1016 AT TIME STEP     38, STRESS PERIOD      2
 UBDSV06 SAVING              GWF IN MODEL EXPERIMENTAL     PACKAGE SFR             CONNECTED TO MODEL EXPERIMENTAL     PACKAGE EXPERIMENTAL     ON UNIT   1016 AT TIME STEP     38, STRESS PERIOD      2
 UBDSV06 SAVING         RAINFALL IN MODEL EXPERIMENTAL     PACKAGE SFR             CONNECTED TO MODEL EXPERIMENTAL     PACKAGE SFR              ON UNIT   1016 AT TIME STEP     38, STRESS PERIOD      2
 UBDSV06 SAVING      EVAPORATION IN MODEL EXPERIMENTAL     PACKAGE SFR             CONNECTED TO MODEL EXPERIMENTAL     PACKAGE SFR              ON UNIT   1016 AT TIME STEP     38, STRESS PERIOD      2
 UBDSV06 SAVING           RUNOFF IN MODEL EXPERIMENTAL     PACKAGE SFR             CONNECTED TO MODEL EXPERIMENTAL     PACKAGE SFR              ON UNIT   1016 AT TIME STEP     38, STRESS PERIOD      2
 UBDSV06 SAVING       EXT-INFLOW IN MODEL EXPERIMENTAL     PACKAGE SFR             CONNECTED TO MODEL EXPERIMENTAL     PACKAGE SFR              ON UNIT   1016 AT TIME STEP     38, STRESS PERIOD      2
 UBDSV06 SAVING      EXT-OUTFLOW IN MODEL EXPERIMENTAL     PACKAGE SFR             CONNECTED TO MODEL EXPERIMENTAL     PACKAGE SFR              ON UNIT   1016 AT TIME STEP     38, STRESS PERIOD      2
 UBDSV06 SAVING          STORAGE IN MODEL EXPERIMENTAL     PACKAGE SFR             CONNECTED TO MODEL EXPERIMENTAL     PACKAGE SFR              ON UNIT   1016 AT TIME STEP     38, STRESS PERIOD      2

 HEAD WILL BE SAVED ON UNIT 1021 AT END OF TIME STEP   38, STRESS PERIOD    2

end timestep


start timestep kper="2" kstp="39" mode="normal"

 UBDSV1 SAVING           STO-SS ON UNIT   1020 AT TIME STEP     39, STRESS PERIOD      2
 UBDSV1 SAVING           STO-SY ON UNIT   1020 AT TIME STEP     39, STRESS PERIOD      2
 UBDSV1 SAVING     FLOW-JA-FACE ON UNIT   1020 AT TIME STEP     39, STRESS PERIOD      2
 UBDSV06 SAVING              GHB IN MODEL EXPERIMENTAL     PACKAGE EXPERIMENTAL    CONNECTED TO MODEL EXPERIMENTAL     PACKAGE GHB              ON UNIT   1020 AT TIME STEP     39, STRESS PERIOD      2
 UBDSV06 SAVING              RCH IN MODEL EXPERIMENTAL     PACKAGE EXPERIMENTAL    CONNECTED TO MODEL EXPERIMENTAL     PACKAGE RCH              ON UNIT   1020 AT TIME STEP     39, STRESS PERIOD      2
 UBDSV06 SAVING              SFR IN MODEL EXPERIMENTAL     PACKAGE EXPERIMENTAL    CONNECTED TO MODEL EXPERIMENTAL     PACKAGE SFR              ON UNIT   1020 AT TIME STEP     39, STRESS PERIOD      2
 UBDSV06 SAVING     FLOW-JA-FACE IN MODEL EXPERIMENTAL     PACKAGE SFR             CONNECTED TO MODEL EXPERIMENTAL     PACKAGE SFR              ON UNIT   1016 AT TIME STEP     39, STRESS PERIOD      2
 UBDSV06 SAVING              GWF IN MODEL EXPERIMENTAL     PACKAGE SFR             CONNECTED TO MODEL EXPERIMENTAL     PACKAGE EXPERIMENTAL     ON UNIT   1016 AT TIME STEP     39, STRESS PERIOD      2
 UBDSV06 SAVING         RAINFALL IN MODEL EXPERIMENTAL     PACKAGE SFR             CONNECTED TO MODEL EXPERIMENTAL     PACKAGE SFR              ON UNIT   1016 AT TIME STEP     39, STRESS PERIOD      2
 UBDSV06 SAVING      EVAPORATION IN MODEL EXPERIMENTAL     PACKAGE SFR             CONNECTED TO MODEL EXPERIMENTAL     PACKAGE SFR              ON UNIT   1016 AT TIME STEP     39, STRESS PERIOD      2
 UBDSV06 SAVING           RUNOFF IN MODEL EXPERIMENTAL     PACKAGE SFR             CONNECTED TO MODEL EXPERIMENTAL     PACKAGE SFR              ON UNIT   1016 AT TIME STEP     39, STRESS PERIOD      2
 UBDSV06 SAVING       EXT-INFLOW IN MODEL EXPERIMENTAL     PACKAGE SFR             CONNECTED TO MODEL EXPERIMENTAL     PACKAGE SFR              ON UNIT   1016 AT TIME STEP     39, STRESS PERIOD      2
 UBDSV06 SAVING      EXT-OUTFLOW IN MODEL EXPERIMENTAL     PACKAGE SFR             CONNECTED TO MODEL EXPERIMENTAL     PACKAGE SFR              ON UNIT   1016 AT TIME STEP     39, STRESS PERIOD      2
 UBDSV06 SAVING          STORAGE IN MODEL EXPERIMENTAL     PACKAGE SFR             CONNECTED TO MODEL EXPERIMENTAL     PACKAGE SFR              ON UNIT   1016 AT TIME STEP     39, STRESS PERIOD      2

 HEAD WILL BE SAVED ON UNIT 1021 AT END OF TIME STEP   39, STRESS PERIOD    2

end timestep


start timestep kper="2" kstp="40" mode="normal"

 UBDSV1 SAVING           STO-SS ON UNIT   1020 AT TIME STEP     40, STRESS PERIOD      2
 UBDSV1 SAVING           STO-SY ON UNIT   1020 AT TIME STEP     40, STRESS PERIOD      2
 UBDSV1 SAVING     FLOW-JA-FACE ON UNIT   1020 AT TIME STEP     40, STRESS PERIOD      2
 UBDSV06 SAVING              GHB IN MODEL EXPERIMENTAL     PACKAGE EXPERIMENTAL    CONNECTED TO MODEL EXPERIMENTAL     PACKAGE GHB              ON UNIT   1020 AT TIME STEP     40, STRESS PERIOD      2
 UBDSV06 SAVING              RCH IN MODEL EXPERIMENTAL     PACKAGE EXPERIMENTAL    CONNECTED TO MODEL EXPERIMENTAL     PACKAGE RCH              ON UNIT   1020 AT TIME STEP     40, STRESS PERIOD      2
 UBDSV06 SAVING              SFR IN MODEL EXPERIMENTAL     PACKAGE EXPERIMENTAL    CONNECTED TO MODEL EXPERIMENTAL     PACKAGE SFR              ON UNIT   1020 AT TIME STEP     40, STRESS PERIOD      2
 UBDSV06 SAVING     FLOW-JA-FACE IN MODEL EXPERIMENTAL     PACKAGE SFR             CONNECTED TO MODEL EXPERIMENTAL     PACKAGE SFR              ON UNIT   1016 AT TIME STEP     40, STRESS PERIOD      2
 UBDSV06 SAVING              GWF IN MODEL EXPERIMENTAL     PACKAGE SFR             CONNECTED TO MODEL EXPERIMENTAL     PACKAGE EXPERIMENTAL     ON UNIT   1016 AT TIME STEP     40, STRESS PERIOD      2
 UBDSV06 SAVING         RAINFALL IN MODEL EXPERIMENTAL     PACKAGE SFR             CONNECTED TO MODEL EXPERIMENTAL     PACKAGE SFR              ON UNIT   1016 AT TIME STEP     40, STRESS PERIOD      2
 UBDSV06 SAVING      EVAPORATION IN MODEL EXPERIMENTAL     PACKAGE SFR             CONNECTED TO MODEL EXPERIMENTAL     PACKAGE SFR              ON UNIT   1016 AT TIME STEP     40, STRESS PERIOD      2
 UBDSV06 SAVING           RUNOFF IN MODEL EXPERIMENTAL     PACKAGE SFR             CONNECTED TO MODEL EXPERIMENTAL     PACKAGE SFR              ON UNIT   1016 AT TIME STEP     40, STRESS PERIOD      2
 UBDSV06 SAVING       EXT-INFLOW IN MODEL EXPERIMENTAL     PACKAGE SFR             CONNECTED TO MODEL EXPERIMENTAL     PACKAGE SFR              ON UNIT   1016 AT TIME STEP     40, STRESS PERIOD      2
 UBDSV06 SAVING      EXT-OUTFLOW IN MODEL EXPERIMENTAL     PACKAGE SFR             CONNECTED TO MODEL EXPERIMENTAL     PACKAGE SFR              ON UNIT   1016 AT TIME STEP     40, STRESS PERIOD      2
 UBDSV06 SAVING          STORAGE IN MODEL EXPERIMENTAL     PACKAGE SFR             CONNECTED TO MODEL EXPERIMENTAL     PACKAGE SFR              ON UNIT   1016 AT TIME STEP     40, STRESS PERIOD      2

 HEAD WILL BE SAVED ON UNIT 1021 AT END OF TIME STEP   40, STRESS PERIOD    2

end timestep


start timestep kper="2" kstp="41" mode="normal"

 UBDSV1 SAVING           STO-SS ON UNIT   1020 AT TIME STEP     41, STRESS PERIOD      2
 UBDSV1 SAVING           STO-SY ON UNIT   1020 AT TIME STEP     41, STRESS PERIOD      2
 UBDSV1 SAVING     FLOW-JA-FACE ON UNIT   1020 AT TIME STEP     41, STRESS PERIOD      2
 UBDSV06 SAVING              GHB IN MODEL EXPERIMENTAL     PACKAGE EXPERIMENTAL    CONNECTED TO MODEL EXPERIMENTAL     PACKAGE GHB              ON UNIT   1020 AT TIME STEP     41, STRESS PERIOD      2
 UBDSV06 SAVING              RCH IN MODEL EXPERIMENTAL     PACKAGE EXPERIMENTAL    CONNECTED TO MODEL EXPERIMENTAL     PACKAGE RCH              ON UNIT   1020 AT TIME STEP     41, STRESS PERIOD      2
 UBDSV06 SAVING              SFR IN MODEL EXPERIMENTAL     PACKAGE EXPERIMENTAL    CONNECTED TO MODEL EXPERIMENTAL     PACKAGE SFR              ON UNIT   1020 AT TIME STEP     41, STRESS PERIOD      2
 UBDSV06 SAVING     FLOW-JA-FACE IN MODEL EXPERIMENTAL     PACKAGE SFR             CONNECTED TO MODEL EXPERIMENTAL     PACKAGE SFR              ON UNIT   1016 AT TIME STEP     41, STRESS PERIOD      2
 UBDSV06 SAVING              GWF IN MODEL EXPERIMENTAL     PACKAGE SFR             CONNECTED TO MODEL EXPERIMENTAL     PACKAGE EXPERIMENTAL     ON UNIT   1016 AT TIME STEP     41, STRESS PERIOD      2
 UBDSV06 SAVING         RAINFALL IN MODEL EXPERIMENTAL     PACKAGE SFR             CONNECTED TO MODEL EXPERIMENTAL     PACKAGE SFR              ON UNIT   1016 AT TIME STEP     41, STRESS PERIOD      2
 UBDSV06 SAVING      EVAPORATION IN MODEL EXPERIMENTAL     PACKAGE SFR             CONNECTED TO MODEL EXPERIMENTAL     PACKAGE SFR              ON UNIT   1016 AT TIME STEP     41, STRESS PERIOD      2
 UBDSV06 SAVING           RUNOFF IN MODEL EXPERIMENTAL     PACKAGE SFR             CONNECTED TO MODEL EXPERIMENTAL     PACKAGE SFR              ON UNIT   1016 AT TIME STEP     41, STRESS PERIOD      2
 UBDSV06 SAVING       EXT-INFLOW IN MODEL EXPERIMENTAL     PACKAGE SFR             CONNECTED TO MODEL EXPERIMENTAL     PACKAGE SFR              ON UNIT   1016 AT TIME STEP     41, STRESS PERIOD      2
 UBDSV06 SAVING      EXT-OUTFLOW IN MODEL EXPERIMENTAL     PACKAGE SFR             CONNECTED TO MODEL EXPERIMENTAL     PACKAGE SFR              ON UNIT   1016 AT TIME STEP     41, STRESS PERIOD      2
 UBDSV06 SAVING          STORAGE IN MODEL EXPERIMENTAL     PACKAGE SFR             CONNECTED TO MODEL EXPERIMENTAL     PACKAGE SFR              ON UNIT   1016 AT TIME STEP     41, STRESS PERIOD      2

 HEAD WILL BE SAVED ON UNIT 1021 AT END OF TIME STEP   41, STRESS PERIOD    2

end timestep


start timestep kper="2" kstp="42" mode="normal"

 UBDSV1 SAVING           STO-SS ON UNIT   1020 AT TIME STEP     42, STRESS PERIOD      2
 UBDSV1 SAVING           STO-SY ON UNIT   1020 AT TIME STEP     42, STRESS PERIOD      2
 UBDSV1 SAVING     FLOW-JA-FACE ON UNIT   1020 AT TIME STEP     42, STRESS PERIOD      2
 UBDSV06 SAVING              GHB IN MODEL EXPERIMENTAL     PACKAGE EXPERIMENTAL    CONNECTED TO MODEL EXPERIMENTAL     PACKAGE GHB              ON UNIT   1020 AT TIME STEP     42, STRESS PERIOD      2
 UBDSV06 SAVING              RCH IN MODEL EXPERIMENTAL     PACKAGE EXPERIMENTAL    CONNECTED TO MODEL EXPERIMENTAL     PACKAGE RCH              ON UNIT   1020 AT TIME STEP     42, STRESS PERIOD      2
 UBDSV06 SAVING              SFR IN MODEL EXPERIMENTAL     PACKAGE EXPERIMENTAL    CONNECTED TO MODEL EXPERIMENTAL     PACKAGE SFR              ON UNIT   1020 AT TIME STEP     42, STRESS PERIOD      2
 UBDSV06 SAVING     FLOW-JA-FACE IN MODEL EXPERIMENTAL     PACKAGE SFR             CONNECTED TO MODEL EXPERIMENTAL     PACKAGE SFR              ON UNIT   1016 AT TIME STEP     42, STRESS PERIOD      2
 UBDSV06 SAVING              GWF IN MODEL EXPERIMENTAL     PACKAGE SFR             CONNECTED TO MODEL EXPERIMENTAL     PACKAGE EXPERIMENTAL     ON UNIT   1016 AT TIME STEP     42, STRESS PERIOD      2
 UBDSV06 SAVING         RAINFALL IN MODEL EXPERIMENTAL     PACKAGE SFR             CONNECTED TO MODEL EXPERIMENTAL     PACKAGE SFR              ON UNIT   1016 AT TIME STEP     42, STRESS PERIOD      2
 UBDSV06 SAVING      EVAPORATION IN MODEL EXPERIMENTAL     PACKAGE SFR             CONNECTED TO MODEL EXPERIMENTAL     PACKAGE SFR              ON UNIT   1016 AT TIME STEP     42, STRESS PERIOD      2
 UBDSV06 SAVING           RUNOFF IN MODEL EXPERIMENTAL     PACKAGE SFR             CONNECTED TO MODEL EXPERIMENTAL     PACKAGE SFR              ON UNIT   1016 AT TIME STEP     42, STRESS PERIOD      2
 UBDSV06 SAVING       EXT-INFLOW IN MODEL EXPERIMENTAL     PACKAGE SFR             CONNECTED TO MODEL EXPERIMENTAL     PACKAGE SFR              ON UNIT   1016 AT TIME STEP     42, STRESS PERIOD      2
 UBDSV06 SAVING      EXT-OUTFLOW IN MODEL EXPERIMENTAL     PACKAGE SFR             CONNECTED TO MODEL EXPERIMENTAL     PACKAGE SFR              ON UNIT   1016 AT TIME STEP     42, STRESS PERIOD      2
 UBDSV06 SAVING          STORAGE IN MODEL EXPERIMENTAL     PACKAGE SFR             CONNECTED TO MODEL EXPERIMENTAL     PACKAGE SFR              ON UNIT   1016 AT TIME STEP     42, STRESS PERIOD      2

 HEAD WILL BE SAVED ON UNIT 1021 AT END OF TIME STEP   42, STRESS PERIOD    2

end timestep


start timestep kper="2" kstp="43" mode="normal"

 UBDSV1 SAVING           STO-SS ON UNIT   1020 AT TIME STEP     43, STRESS PERIOD      2
 UBDSV1 SAVING           STO-SY ON UNIT   1020 AT TIME STEP     43, STRESS PERIOD      2
 UBDSV1 SAVING     FLOW-JA-FACE ON UNIT   1020 AT TIME STEP     43, STRESS PERIOD      2
 UBDSV06 SAVING              GHB IN MODEL EXPERIMENTAL     PACKAGE EXPERIMENTAL    CONNECTED TO MODEL EXPERIMENTAL     PACKAGE GHB              ON UNIT   1020 AT TIME STEP     43, STRESS PERIOD      2
 UBDSV06 SAVING              RCH IN MODEL EXPERIMENTAL     PACKAGE EXPERIMENTAL    CONNECTED TO MODEL EXPERIMENTAL     PACKAGE RCH              ON UNIT   1020 AT TIME STEP     43, STRESS PERIOD      2
 UBDSV06 SAVING              SFR IN MODEL EXPERIMENTAL     PACKAGE EXPERIMENTAL    CONNECTED TO MODEL EXPERIMENTAL     PACKAGE SFR              ON UNIT   1020 AT TIME STEP     43, STRESS PERIOD      2
 UBDSV06 SAVING     FLOW-JA-FACE IN MODEL EXPERIMENTAL     PACKAGE SFR             CONNECTED TO MODEL EXPERIMENTAL     PACKAGE SFR              ON UNIT   1016 AT TIME STEP     43, STRESS PERIOD      2
 UBDSV06 SAVING              GWF IN MODEL EXPERIMENTAL     PACKAGE SFR             CONNECTED TO MODEL EXPERIMENTAL     PACKAGE EXPERIMENTAL     ON UNIT   1016 AT TIME STEP     43, STRESS PERIOD      2
 UBDSV06 SAVING         RAINFALL IN MODEL EXPERIMENTAL     PACKAGE SFR             CONNECTED TO MODEL EXPERIMENTAL     PACKAGE SFR              ON UNIT   1016 AT TIME STEP     43, STRESS PERIOD      2
 UBDSV06 SAVING      EVAPORATION IN MODEL EXPERIMENTAL     PACKAGE SFR             CONNECTED TO MODEL EXPERIMENTAL     PACKAGE SFR              ON UNIT   1016 AT TIME STEP     43, STRESS PERIOD      2
 UBDSV06 SAVING           RUNOFF IN MODEL EXPERIMENTAL     PACKAGE SFR             CONNECTED TO MODEL EXPERIMENTAL     PACKAGE SFR              ON UNIT   1016 AT TIME STEP     43, STRESS PERIOD      2
 UBDSV06 SAVING       EXT-INFLOW IN MODEL EXPERIMENTAL     PACKAGE SFR             CONNECTED TO MODEL EXPERIMENTAL     PACKAGE SFR              ON UNIT   1016 AT TIME STEP     43, STRESS PERIOD      2
 UBDSV06 SAVING      EXT-OUTFLOW IN MODEL EXPERIMENTAL     PACKAGE SFR             CONNECTED TO MODEL EXPERIMENTAL     PACKAGE SFR              ON UNIT   1016 AT TIME STEP     43, STRESS PERIOD      2
 UBDSV06 SAVING          STORAGE IN MODEL EXPERIMENTAL     PACKAGE SFR             CONNECTED TO MODEL EXPERIMENTAL     PACKAGE SFR              ON UNIT   1016 AT TIME STEP     43, STRESS PERIOD      2

 HEAD WILL BE SAVED ON UNIT 1021 AT END OF TIME STEP   43, STRESS PERIOD    2

end timestep


start timestep kper="2" kstp="44" mode="normal"

 UBDSV1 SAVING           STO-SS ON UNIT   1020 AT TIME STEP     44, STRESS PERIOD      2
 UBDSV1 SAVING           STO-SY ON UNIT   1020 AT TIME STEP     44, STRESS PERIOD      2
 UBDSV1 SAVING     FLOW-JA-FACE ON UNIT   1020 AT TIME STEP     44, STRESS PERIOD      2
 UBDSV06 SAVING              GHB IN MODEL EXPERIMENTAL     PACKAGE EXPERIMENTAL    CONNECTED TO MODEL EXPERIMENTAL     PACKAGE GHB              ON UNIT   1020 AT TIME STEP     44, STRESS PERIOD      2
 UBDSV06 SAVING              RCH IN MODEL EXPERIMENTAL     PACKAGE EXPERIMENTAL    CONNECTED TO MODEL EXPERIMENTAL     PACKAGE RCH              ON UNIT   1020 AT TIME STEP     44, STRESS PERIOD      2
 UBDSV06 SAVING              SFR IN MODEL EXPERIMENTAL     PACKAGE EXPERIMENTAL    CONNECTED TO MODEL EXPERIMENTAL     PACKAGE SFR              ON UNIT   1020 AT TIME STEP     44, STRESS PERIOD      2
 UBDSV06 SAVING     FLOW-JA-FACE IN MODEL EXPERIMENTAL     PACKAGE SFR             CONNECTED TO MODEL EXPERIMENTAL     PACKAGE SFR              ON UNIT   1016 AT TIME STEP     44, STRESS PERIOD      2
 UBDSV06 SAVING              GWF IN MODEL EXPERIMENTAL     PACKAGE SFR             CONNECTED TO MODEL EXPERIMENTAL     PACKAGE EXPERIMENTAL     ON UNIT   1016 AT TIME STEP     44, STRESS PERIOD      2
 UBDSV06 SAVING         RAINFALL IN MODEL EXPERIMENTAL     PACKAGE SFR             CONNECTED TO MODEL EXPERIMENTAL     PACKAGE SFR              ON UNIT   1016 AT TIME STEP     44, STRESS PERIOD      2
 UBDSV06 SAVING      EVAPORATION IN MODEL EXPERIMENTAL     PACKAGE SFR             CONNECTED TO MODEL EXPERIMENTAL     PACKAGE SFR              ON UNIT   1016 AT TIME STEP     44, STRESS PERIOD      2
 UBDSV06 SAVING           RUNOFF IN MODEL EXPERIMENTAL     PACKAGE SFR             CONNECTED TO MODEL EXPERIMENTAL     PACKAGE SFR              ON UNIT   1016 AT TIME STEP     44, STRESS PERIOD      2
 UBDSV06 SAVING       EXT-INFLOW IN MODEL EXPERIMENTAL     PACKAGE SFR             CONNECTED TO MODEL EXPERIMENTAL     PACKAGE SFR              ON UNIT   1016 AT TIME STEP     44, STRESS PERIOD      2
 UBDSV06 SAVING      EXT-OUTFLOW IN MODEL EXPERIMENTAL     PACKAGE SFR             CONNECTED TO MODEL EXPERIMENTAL     PACKAGE SFR              ON UNIT   1016 AT TIME STEP     44, STRESS PERIOD      2
 UBDSV06 SAVING          STORAGE IN MODEL EXPERIMENTAL     PACKAGE SFR             CONNECTED TO MODEL EXPERIMENTAL     PACKAGE SFR              ON UNIT   1016 AT TIME STEP     44, STRESS PERIOD      2

 HEAD WILL BE SAVED ON UNIT 1021 AT END OF TIME STEP   44, STRESS PERIOD    2

end timestep


start timestep kper="2" kstp="45" mode="normal"

 UBDSV1 SAVING           STO-SS ON UNIT   1020 AT TIME STEP     45, STRESS PERIOD      2
 UBDSV1 SAVING           STO-SY ON UNIT   1020 AT TIME STEP     45, STRESS PERIOD      2
 UBDSV1 SAVING     FLOW-JA-FACE ON UNIT   1020 AT TIME STEP     45, STRESS PERIOD      2
 UBDSV06 SAVING              GHB IN MODEL EXPERIMENTAL     PACKAGE EXPERIMENTAL    CONNECTED TO MODEL EXPERIMENTAL     PACKAGE GHB              ON UNIT   1020 AT TIME STEP     45, STRESS PERIOD      2
 UBDSV06 SAVING              RCH IN MODEL EXPERIMENTAL     PACKAGE EXPERIMENTAL    CONNECTED TO MODEL EXPERIMENTAL     PACKAGE RCH              ON UNIT   1020 AT TIME STEP     45, STRESS PERIOD      2
 UBDSV06 SAVING              SFR IN MODEL EXPERIMENTAL     PACKAGE EXPERIMENTAL    CONNECTED TO MODEL EXPERIMENTAL     PACKAGE SFR              ON UNIT   1020 AT TIME STEP     45, STRESS PERIOD      2
 UBDSV06 SAVING     FLOW-JA-FACE IN MODEL EXPERIMENTAL     PACKAGE SFR             CONNECTED TO MODEL EXPERIMENTAL     PACKAGE SFR              ON UNIT   1016 AT TIME STEP     45, STRESS PERIOD      2
 UBDSV06 SAVING              GWF IN MODEL EXPERIMENTAL     PACKAGE SFR             CONNECTED TO MODEL EXPERIMENTAL     PACKAGE EXPERIMENTAL     ON UNIT   1016 AT TIME STEP     45, STRESS PERIOD      2
 UBDSV06 SAVING         RAINFALL IN MODEL EXPERIMENTAL     PACKAGE SFR             CONNECTED TO MODEL EXPERIMENTAL     PACKAGE SFR              ON UNIT   1016 AT TIME STEP     45, STRESS PERIOD      2
 UBDSV06 SAVING      EVAPORATION IN MODEL EXPERIMENTAL     PACKAGE SFR             CONNECTED TO MODEL EXPERIMENTAL     PACKAGE SFR              ON UNIT   1016 AT TIME STEP     45, STRESS PERIOD      2
 UBDSV06 SAVING           RUNOFF IN MODEL EXPERIMENTAL     PACKAGE SFR             CONNECTED TO MODEL EXPERIMENTAL     PACKAGE SFR              ON UNIT   1016 AT TIME STEP     45, STRESS PERIOD      2
 UBDSV06 SAVING       EXT-INFLOW IN MODEL EXPERIMENTAL     PACKAGE SFR             CONNECTED TO MODEL EXPERIMENTAL     PACKAGE SFR              ON UNIT   1016 AT TIME STEP     45, STRESS PERIOD      2
 UBDSV06 SAVING      EXT-OUTFLOW IN MODEL EXPERIMENTAL     PACKAGE SFR             CONNECTED TO MODEL EXPERIMENTAL     PACKAGE SFR              ON UNIT   1016 AT TIME STEP     45, STRESS PERIOD      2
 UBDSV06 SAVING          STORAGE IN MODEL EXPERIMENTAL     PACKAGE SFR             CONNECTED TO MODEL EXPERIMENTAL     PACKAGE SFR              ON UNIT   1016 AT TIME STEP     45, STRESS PERIOD      2

 HEAD WILL BE SAVED ON UNIT 1021 AT END OF TIME STEP   45, STRESS PERIOD    2

end timestep


start timestep kper="2" kstp="46" mode="normal"

 UBDSV1 SAVING           STO-SS ON UNIT   1020 AT TIME STEP     46, STRESS PERIOD      2
 UBDSV1 SAVING           STO-SY ON UNIT   1020 AT TIME STEP     46, STRESS PERIOD      2
 UBDSV1 SAVING     FLOW-JA-FACE ON UNIT   1020 AT TIME STEP     46, STRESS PERIOD      2
 UBDSV06 SAVING              GHB IN MODEL EXPERIMENTAL     PACKAGE EXPERIMENTAL    CONNECTED TO MODEL EXPERIMENTAL     PACKAGE GHB              ON UNIT   1020 AT TIME STEP     46, STRESS PERIOD      2
 UBDSV06 SAVING              RCH IN MODEL EXPERIMENTAL     PACKAGE EXPERIMENTAL    CONNECTED TO MODEL EXPERIMENTAL     PACKAGE RCH              ON UNIT   1020 AT TIME STEP     46, STRESS PERIOD      2
 UBDSV06 SAVING              SFR IN MODEL EXPERIMENTAL     PACKAGE EXPERIMENTAL    CONNECTED TO MODEL EXPERIMENTAL     PACKAGE SFR              ON UNIT   1020 AT TIME STEP     46, STRESS PERIOD      2
 UBDSV06 SAVING     FLOW-JA-FACE IN MODEL EXPERIMENTAL     PACKAGE SFR             CONNECTED TO MODEL EXPERIMENTAL     PACKAGE SFR              ON UNIT   1016 AT TIME STEP     46, STRESS PERIOD      2
 UBDSV06 SAVING              GWF IN MODEL EXPERIMENTAL     PACKAGE SFR             CONNECTED TO MODEL EXPERIMENTAL     PACKAGE EXPERIMENTAL     ON UNIT   1016 AT TIME STEP     46, STRESS PERIOD      2
 UBDSV06 SAVING         RAINFALL IN MODEL EXPERIMENTAL     PACKAGE SFR             CONNECTED TO MODEL EXPERIMENTAL     PACKAGE SFR              ON UNIT   1016 AT TIME STEP     46, STRESS PERIOD      2
 UBDSV06 SAVING      EVAPORATION IN MODEL EXPERIMENTAL     PACKAGE SFR             CONNECTED TO MODEL EXPERIMENTAL     PACKAGE SFR              ON UNIT   1016 AT TIME STEP     46, STRESS PERIOD      2
 UBDSV06 SAVING           RUNOFF IN MODEL EXPERIMENTAL     PACKAGE SFR             CONNECTED TO MODEL EXPERIMENTAL     PACKAGE SFR              ON UNIT   1016 AT TIME STEP     46, STRESS PERIOD      2
 UBDSV06 SAVING       EXT-INFLOW IN MODEL EXPERIMENTAL     PACKAGE SFR             CONNECTED TO MODEL EXPERIMENTAL     PACKAGE SFR              ON UNIT   1016 AT TIME STEP     46, STRESS PERIOD      2
 UBDSV06 SAVING      EXT-OUTFLOW IN MODEL EXPERIMENTAL     PACKAGE SFR             CONNECTED TO MODEL EXPERIMENTAL     PACKAGE SFR              ON UNIT   1016 AT TIME STEP     46, STRESS PERIOD      2
 UBDSV06 SAVING          STORAGE IN MODEL EXPERIMENTAL     PACKAGE SFR             CONNECTED TO MODEL EXPERIMENTAL     PACKAGE SFR              ON UNIT   1016 AT TIME STEP     46, STRESS PERIOD      2

 HEAD WILL BE SAVED ON UNIT 1021 AT END OF TIME STEP   46, STRESS PERIOD    2

end timestep


start timestep kper="2" kstp="47" mode="normal"

 UBDSV1 SAVING           STO-SS ON UNIT   1020 AT TIME STEP     47, STRESS PERIOD      2
 UBDSV1 SAVING           STO-SY ON UNIT   1020 AT TIME STEP     47, STRESS PERIOD      2
 UBDSV1 SAVING     FLOW-JA-FACE ON UNIT   1020 AT TIME STEP     47, STRESS PERIOD      2
 UBDSV06 SAVING              GHB IN MODEL EXPERIMENTAL     PACKAGE EXPERIMENTAL    CONNECTED TO MODEL EXPERIMENTAL     PACKAGE GHB              ON UNIT   1020 AT TIME STEP     47, STRESS PERIOD      2
 UBDSV06 SAVING              RCH IN MODEL EXPERIMENTAL     PACKAGE EXPERIMENTAL    CONNECTED TO MODEL EXPERIMENTAL     PACKAGE RCH              ON UNIT   1020 AT TIME STEP     47, STRESS PERIOD      2
 UBDSV06 SAVING              SFR IN MODEL EXPERIMENTAL     PACKAGE EXPERIMENTAL    CONNECTED TO MODEL EXPERIMENTAL     PACKAGE SFR              ON UNIT   1020 AT TIME STEP     47, STRESS PERIOD      2
 UBDSV06 SAVING     FLOW-JA-FACE IN MODEL EXPERIMENTAL     PACKAGE SFR             CONNECTED TO MODEL EXPERIMENTAL     PACKAGE SFR              ON UNIT   1016 AT TIME STEP     47, STRESS PERIOD      2
 UBDSV06 SAVING              GWF IN MODEL EXPERIMENTAL     PACKAGE SFR             CONNECTED TO MODEL EXPERIMENTAL     PACKAGE EXPERIMENTAL     ON UNIT   1016 AT TIME STEP     47, STRESS PERIOD      2
 UBDSV06 SAVING         RAINFALL IN MODEL EXPERIMENTAL     PACKAGE SFR             CONNECTED TO MODEL EXPERIMENTAL     PACKAGE SFR              ON UNIT   1016 AT TIME STEP     47, STRESS PERIOD      2
 UBDSV06 SAVING      EVAPORATION IN MODEL EXPERIMENTAL     PACKAGE SFR             CONNECTED TO MODEL EXPERIMENTAL     PACKAGE SFR              ON UNIT   1016 AT TIME STEP     47, STRESS PERIOD      2
 UBDSV06 SAVING           RUNOFF IN MODEL EXPERIMENTAL     PACKAGE SFR             CONNECTED TO MODEL EXPERIMENTAL     PACKAGE SFR              ON UNIT   1016 AT TIME STEP     47, STRESS PERIOD      2
 UBDSV06 SAVING       EXT-INFLOW IN MODEL EXPERIMENTAL     PACKAGE SFR             CONNECTED TO MODEL EXPERIMENTAL     PACKAGE SFR              ON UNIT   1016 AT TIME STEP     47, STRESS PERIOD      2
 UBDSV06 SAVING      EXT-OUTFLOW IN MODEL EXPERIMENTAL     PACKAGE SFR             CONNECTED TO MODEL EXPERIMENTAL     PACKAGE SFR              ON UNIT   1016 AT TIME STEP     47, STRESS PERIOD      2
 UBDSV06 SAVING          STORAGE IN MODEL EXPERIMENTAL     PACKAGE SFR             CONNECTED TO MODEL EXPERIMENTAL     PACKAGE SFR              ON UNIT   1016 AT TIME STEP     47, STRESS PERIOD      2

 HEAD WILL BE SAVED ON UNIT 1021 AT END OF TIME STEP   47, STRESS PERIOD    2

end timestep


start timestep kper="2" kstp="48" mode="normal"

 UBDSV1 SAVING           STO-SS ON UNIT   1020 AT TIME STEP     48, STRESS PERIOD      2
 UBDSV1 SAVING           STO-SY ON UNIT   1020 AT TIME STEP     48, STRESS PERIOD      2
 UBDSV1 SAVING     FLOW-JA-FACE ON UNIT   1020 AT TIME STEP     48, STRESS PERIOD      2
 UBDSV06 SAVING              GHB IN MODEL EXPERIMENTAL     PACKAGE EXPERIMENTAL    CONNECTED TO MODEL EXPERIMENTAL     PACKAGE GHB              ON UNIT   1020 AT TIME STEP     48, STRESS PERIOD      2

 GHB PACKAGE (GHB) FLOW RATES   PERIOD      2   STEP       48
 --------------------------------------------------------------------
   NUMBER   CELLID                    RATE       NAME                
 --------------------------------------------------------------------
     32     (1,312)               183.10760      ORANGE              
     33     (1,313)               165.69706      ORANGE              
     34     (1,314)               152.90503      ORANGE              
     35     (1,315)               143.27862      ORANGE              
     36     (1,316)               135.48799      ORANGE              
     37     (1,317)               128.83048      ORANGE              
     38     (1,318)               122.96495      ORANGE              
     39     (1,319)               117.64742      ORANGE              
     40     (1,320)               112.86930      ORANGE              
     41     (1,321)               108.41390      ORANGE              
     42     (1,322)               104.20683      ORANGE              
     43     (1,323)               99.820032      ORANGE              
     44     (1,324)               95.466964      ORANGE              
     45     (1,325)               91.277481      ORANGE              
     46     (1,326)               87.181263      ORANGE              
     47     (1,327)               82.866916      ORANGE              
     48     (1,328)               77.910395      ORANGE              
     49     (1,329)               73.175338      ORANGE              
     50     (1,330)               68.894491      ORANGE              
     51     (1,331)               70.591801      ORANGE              
     68     (1,51)                88.421252      GOLD                
     69     (1,84)                83.051266      GOLD                
     70     (1,116)               78.074847      GOLD                
     71     (1,150)               72.623864      GOLD                
     72     (1,186)               66.132385      GOLD                
     73     (1,224)               57.626188      GOLD                
     74     (1,264)               44.522412      GOLD                
     75     (1,1)                 66.478337      YELLOWGREEN         
     76     (1,2)                 67.520926      YELLOWGREEN         
     77     (1,3)                 70.531996      YELLOWGREEN         
     78     (1,4)                 76.840408      YELLOWGREEN         
     79     (1,5)                 80.562466      YELLOWGREEN         
     80     (1,6)                 81.197678      YELLOWGREEN         
     81     (1,9)                 83.229009      YELLOWGREEN         
     82     (1,10)                75.502656      YELLOWGREEN         
     83     (1,11)                68.674044      YELLOWGREEN         
     84     (1,12)                62.640103      YELLOWGREEN         
     85     (1,13)                57.095981      YELLOWGREEN         
     86     (1,14)                51.872895      YELLOWGREEN         
     87     (1,15)                46.857306      YELLOWGREEN         
     88     (1,16)                42.010100      YELLOWGREEN         
     89     (1,17)                37.296241      YELLOWGREEN         
     90     (1,18)                32.685934      YELLOWGREEN         
     91     (1,19)                28.245032      YELLOWGREEN         
     92     (1,20)                23.989468      YELLOWGREEN         
     93     (1,21)                19.889722      YELLOWGREEN         
     94     (1,22)                16.062569      YELLOWGREEN         
     95     (1,23)                13.027411      YELLOWGREEN         
     96     (1,52)                0.36725698     LIMEGREEN           
     97     (1,85)                1.7475242      LIMEGREEN           
     98     (1,117)               2.8063273      LIMEGREEN           
     99     (1,151)               3.9161224      LIMEGREEN           
    100     (1,187)               5.2985574      LIMEGREEN           
    101     (1,265)              -23.461671      AQUA                
    102     (1,348)              -23.183272      AQUA                
    103     (1,429)              -22.892256      AQUA                
    104     (1,505)              -22.660961      AQUA                
    105     (1,585)              -22.491771      AQUA                
    106     (1,666)              -22.374323      AQUA                
    107     (1,748)              -22.297419      AQUA                
    108     (1,831)              -22.250369      AQUA                
    109     (1,914)              -22.228905      AQUA                
    110     (1,997)              -22.233241      AQUA                
    111     (1,1077)             -22.265937      AQUA                
    112     (1,1157)             -22.333095      AQUA                
    113     (1,1240)             -22.425053      AQUA                
    114     (1,1399)             -24.960857      DARKTURQUOISE       
    115     (1,1486)             -25.729441      DARKTURQUOISE       
    116     (1,1581)             -26.625967      DARKTURQUOISE       
    117     (1,1693)             -27.563067      DARKTURQUOISE       
    118     (1,1777)             -28.523584      DARKTURQUOISE       
    119     (1,1854)             -29.516172      DARKTURQUOISE       
    120     (1,1930)             -30.494469      DARKTURQUOISE       
    121     (1,2005)             -31.473415      DARKTURQUOISE       
    122     (1,2076)             -32.457344      DARKTURQUOISE       
    123     (1,2146)             -33.470599      DARKTURQUOISE       
    124     (1,2215)             -34.479093      DARKTURQUOISE       
    125     (1,2310)             -35.423100      DARKTURQUOISE       
    126     (1,2404)             -36.453141      DARKTURQUOISE       
    127     (1,2488)             -37.449742      DARKTURQUOISE       
    128     (1,2566)             -38.360439      DARKTURQUOISE       
    129     (1,2636)             -39.161109      DARKTURQUOISE       
    130     (1,2705)             -39.870938      DARKTURQUOISE       
    131     (1,2785)             -40.458306      DARKTURQUOISE       
    132     (1,2856)             -40.813557      DARKTURQUOISE       
    133     (1,2921)             -40.820299      DARKTURQUOISE       
    134     (1,2971)             -40.306280      DARKTURQUOISE       
    135     (1,3018)             -39.008902      DARKTURQUOISE       
    136     (1,3061)             -19.868167      DARKTURQUOISE       
 --------------------------------------------------------------------



 UBDSV06 SAVING              RCH IN MODEL EXPERIMENTAL     PACKAGE EXPERIMENTAL    CONNECTED TO MODEL EXPERIMENTAL     PACKAGE RCH              ON UNIT   1020 AT TIME STEP     48, STRESS PERIOD      2

 RCH PACKAGE (RCH) FLOW RATES   PERIOD      2   STEP       48
 -----------------------------------------------
   NUMBER   CELLID                    RATE      
 -----------------------------------------------
     1      (1,7)                 1.36966235E-02
     2      (1,8)                 1.36963559E-02
     3      (1,24)                5.47859589E-02
     4      (1,25)                5.47859589E-02
     5      (1,26)                5.47863602E-02
     6      (1,27)                5.47852900E-02
     7      (1,28)                5.47961258E-02
     8      (1,29)                1.36966235E-02
     9      (1,30)                1.36964897E-02
     10     (1,31)                1.36968910E-02
     11     (1,32)                1.36967573E-02
     12     (1,33)                1.36958208E-02
     13     (1,34)                1.36966235E-02
     14     (1,35)                1.36963559E-02
     15     (1,36)                1.36983626E-02
     16     (1,37)                5.47688356E-02
     17     (1,38)                5.48141855E-02
     18     (1,39)                5.48250214E-02
     19     (1,40)                5.47860926E-02
     20     (1,41)                5.47859589E-02
     21     (1,42)                5.47860926E-02
     22     (1,43)                5.47860926E-02
     23     (1,44)                5.47859589E-02
     24     (1,45)                5.47855575E-02
     25     (1,46)                5.47854238E-02
     26     (1,47)                5.48246200E-02
     27     (1,48)                5.48242187E-02
     28     (1,49)                5.47863602E-02
     29     (1,50)                5.47889019E-02
     30     (1,53)                5.48248876E-02
     31     (1,54)                5.47858251E-02
     32     (1,55)                5.47860926E-02
     33     (1,56)                5.47854238E-02
     34     (1,57)                5.47856913E-02
     35     (1,58)                5.48073630E-02
     36     (1,59)                1.36979612E-02
     37     (1,60)                1.36963559E-02
     38     (1,61)                1.36968910E-02
     39     (1,62)                1.36968910E-02
     40     (1,63)                1.36966235E-02
     41     (1,64)                1.36966235E-02
     42     (1,65)                1.36960884E-02
     43     (1,66)                1.36959546E-02
     44     (1,67)                1.36962222E-02
     45     (1,68)                1.36956871E-02
     46     (1,69)                1.36963559E-02
     47     (1,70)                1.36968910E-02
     48     (1,71)                5.48050888E-02
     49     (1,72)                5.48243525E-02
     50     (1,73)                5.47859589E-02
     51     (1,74)                5.47852900E-02
     52     (1,75)                5.47859589E-02
     53     (1,76)                5.47859589E-02
     54     (1,77)                5.47862264E-02
     55     (1,78)                5.47860926E-02
     56     (1,79)                5.47855575E-02
     57     (1,80)                5.48246200E-02
     58     (1,81)                5.48282320E-02
     59     (1,82)                5.47887681E-02
     60     (1,83)                5.47864940E-02
     61     (1,86)                5.47856913E-02
     62     (1,87)                5.48240849E-02
     63     (1,88)                5.48244863E-02
     64     (1,89)                5.47855575E-02
     65     (1,90)                5.47856913E-02
     66     (1,91)                5.47898384E-02
     67     (1,92)                5.47899721E-02
     68     (1,93)                5.47954569E-02
     69     (1,94)                5.48044199E-02
     70     (1,95)                1.36968910E-02
     71     (1,96)                1.36968910E-02
     72     (1,97)                1.36963559E-02
     73     (1,98)                1.36962222E-02
     74     (1,99)                1.36962222E-02
     75     (1,100)               1.36964897E-02
     76     (1,101)               1.36967573E-02
     77     (1,102)               1.36959546E-02
     78     (1,103)               5.48056239E-02
     79     (1,104)               5.48246200E-02
     80     (1,105)               5.47855575E-02
     81     (1,106)               5.47859589E-02
     82     (1,107)               5.47860926E-02
     83     (1,108)               5.47862264E-02
     84     (1,109)               5.47863602E-02
     85     (1,110)               5.47859589E-02
     86     (1,111)               5.47897046E-02
     87     (1,112)               5.48282320E-02
     88     (1,113)               5.48240849E-02
     89     (1,114)               5.47854238E-02
     90     (1,115)               5.47856913E-02
     91     (1,118)               5.47855575E-02
     92     (1,119)               5.47855575E-02
     93     (1,120)               5.47858251E-02
     94     (1,121)               5.48239512E-02
     95     (1,122)               5.48242187E-02
     96     (1,123)               5.47899721E-02
     97     (1,124)               5.47891695E-02
     98     (1,125)               5.47856913E-02
     99     (1,126)               5.47858251E-02
    100     (1,127)               5.47858251E-02
    101     (1,128)               5.48053563E-02
    102     (1,129)               1.36968910E-02
    103     (1,130)               1.36960884E-02
    104     (1,131)               1.36970248E-02
    105     (1,132)               1.36963559E-02
    106     (1,133)               1.36967573E-02
    107     (1,134)               1.36986301E-02
    108     (1,135)               1.36984963E-02
    109     (1,136)               1.36966235E-02
    110     (1,137)               5.48049550E-02
    111     (1,138)               5.48250214E-02
    112     (1,139)               5.47856913E-02
    113     (1,140)               5.47860926E-02
    114     (1,141)               5.47859589E-02
    115     (1,142)               5.47859589E-02
    116     (1,143)               5.47894370E-02
    117     (1,144)               5.47903735E-02
    118     (1,145)               5.47855575E-02
    119     (1,146)               5.48243525E-02
    120     (1,147)               5.48242187E-02
    121     (1,148)               5.47863602E-02
    122     (1,149)               5.47859589E-02
    123     (1,152)               5.47862264E-02
    124     (1,153)               5.47860926E-02
    125     (1,154)               5.47851562E-02
    126     (1,155)               5.47863602E-02
    127     (1,156)               5.47851562E-02
    128     (1,157)               5.48286333E-02
    129     (1,158)               5.48283657E-02
    130     (1,159)               5.47858251E-02
    131     (1,160)               5.47855575E-02
    132     (1,161)               5.47862264E-02
    133     (1,162)               5.47859589E-02
    134     (1,163)               5.47860926E-02
    135     (1,164)               5.48070954E-02
    136     (1,165)               1.36972924E-02
    137     (1,166)               1.36971586E-02
    138     (1,167)               1.36964897E-02
    139     (1,168)               1.36970248E-02
    140     (1,169)               1.36967573E-02
    141     (1,170)               1.36962222E-02
    142     (1,171)               1.36962222E-02
    143     (1,172)               1.36963559E-02
    144     (1,173)               5.48058914E-02
    145     (1,174)               5.48238174E-02
    146     (1,175)               5.47860926E-02
    147     (1,176)               5.47858251E-02
    148     (1,177)               5.47894370E-02
    149     (1,178)               5.47901059E-02
    150     (1,179)               5.47863602E-02
    151     (1,180)               5.47858251E-02
    152     (1,181)               5.47855575E-02
    153     (1,182)               5.48250214E-02
    154     (1,183)               5.48246200E-02
    155     (1,184)               5.47855575E-02
    156     (1,185)               5.47855575E-02
    157     (1,188)               5.47860926E-02
    158     (1,189)               5.47860926E-02
    159     (1,190)               5.47863602E-02
    160     (1,191)               5.47859589E-02
    161     (1,192)               5.47852900E-02
    162     (1,193)               5.47897046E-02
    163     (1,194)               5.47897046E-02
    164     (1,195)               5.48244863E-02
    165     (1,196)               5.48244863E-02
    166     (1,197)               5.47855575E-02
    167     (1,198)               5.47851562E-02
    168     (1,199)               5.47858251E-02
    169     (1,200)               5.47863602E-02
    170     (1,201)               5.47860926E-02
    171     (1,202)               5.48048212E-02
    172     (1,203)               1.36963559E-02
    173     (1,204)               1.36960884E-02
    174     (1,205)               1.36964897E-02
    175     (1,206)               1.36960884E-02
    176     (1,207)               1.36960884E-02
    177     (1,208)               1.36967573E-02
    178     (1,209)               1.36967573E-02
    179     (1,210)               1.36967573E-02
    180     (1,211)               5.48045537E-02
    181     (1,212)               5.48244863E-02
    182     (1,213)               5.47894370E-02
    183     (1,214)               5.47891695E-02
    184     (1,215)               5.47863602E-02
    185     (1,216)               5.47858251E-02
    186     (1,217)               5.47859589E-02
    187     (1,218)               5.47860926E-02
    188     (1,219)               5.47862264E-02
    189     (1,220)               5.48246200E-02
    190     (1,221)               5.48239512E-02
    191     (1,222)               5.47862264E-02
    192     (1,223)               5.47859589E-02
    193     (1,225)               5.47854238E-02
    194     (1,226)               5.48242187E-02
    195     (1,227)               5.48246200E-02
    196     (1,228)               5.47856913E-02
    197     (1,229)               5.47860926E-02
    198     (1,230)               5.47862264E-02
    199     (1,231)               5.47894370E-02
    200     (1,232)               5.47897046E-02
    201     (1,233)               5.47860926E-02
    202     (1,234)               5.47858251E-02
    203     (1,235)               5.48244863E-02
    204     (1,236)               5.48243525E-02
    205     (1,237)               5.47862264E-02
    206     (1,238)               5.47855575E-02
    207     (1,239)               5.47856913E-02
    208     (1,240)               5.47859589E-02
    209     (1,241)               5.47856913E-02
    210     (1,242)               5.48058914E-02
    211     (1,243)               1.36970248E-02
    212     (1,244)               1.36963559E-02
    213     (1,245)               1.36963559E-02
    214     (1,246)               1.36968910E-02
    215     (1,247)               1.36964897E-02
    216     (1,248)               1.36964897E-02
    217     (1,249)               1.36963559E-02
    218     (1,250)               1.36968910E-02
    219     (1,251)               5.48081656E-02
    220     (1,252)               5.48272955E-02
    221     (1,253)               5.47939854E-02
    222     (1,254)               5.47858251E-02
    223     (1,255)               5.47856913E-02
    224     (1,256)               5.47859589E-02
    225     (1,257)               5.47859589E-02
    226     (1,258)               5.47862264E-02
    227     (1,259)               5.47858251E-02
    228     (1,260)               5.48243525E-02
    229     (1,261)               5.48244863E-02
    230     (1,262)               5.47855575E-02
    231     (1,263)               5.47852900E-02
    232     (1,266)               5.47856913E-02
    233     (1,267)               5.47859589E-02
    234     (1,268)               5.48246200E-02
    235     (1,269)               5.48246200E-02
    236     (1,270)               5.47863602E-02
    237     (1,271)               5.47902397E-02
    238     (1,272)               5.47895708E-02
    239     (1,273)               5.47854238E-02
    240     (1,274)               5.47854238E-02
    241     (1,275)               5.47855575E-02
    242     (1,276)               5.47854238E-02
    243     (1,277)               5.48246200E-02
    244     (1,278)               5.48243525E-02
    245     (1,279)               5.47855575E-02
    246     (1,280)               5.47854238E-02
    247     (1,281)               5.47858251E-02
    248     (1,282)               5.47858251E-02
    249     (1,283)               5.47852900E-02
    250     (1,284)               5.48049550E-02
    251     (1,285)               1.36960884E-02
    252     (1,286)               1.36963559E-02
    253     (1,287)               1.36968910E-02
    254     (1,288)               1.36978275E-02
    255     (1,289)               1.36990315E-02
    256     (1,290)               1.36966235E-02
    257     (1,291)               1.36960884E-02
    258     (1,292)               1.36963559E-02
    259     (1,293)               1.36964897E-02
    260     (1,294)               1.37160210E-02
    261     (1,295)               1.36966235E-02
    262     (1,296)               1.36964897E-02
    263     (1,297)               1.36962222E-02
    264     (1,298)               1.36963559E-02
    265     (1,299)               1.37157534E-02
    266     (1,300)               1.36960884E-02
    267     (1,301)               5.48048212E-02
    268     (1,302)               5.47946543E-02
    269     (1,303)               5.47858251E-02
    270     (1,304)               5.47854238E-02
    271     (1,305)               5.47855575E-02
    272     (1,306)               5.47862264E-02
    273     (1,307)               5.47859589E-02
    274     (1,308)               5.48239512E-02
    275     (1,309)               5.48248876E-02
    276     (1,310)               5.47856913E-02
    277     (1,311)               5.47859589E-02
    278     (1,349)               5.47858251E-02
    279     (1,350)               5.47858251E-02
    280     (1,351)               5.47862264E-02
    281     (1,352)               5.48243525E-02
    282     (1,353)               5.48283657E-02
    283     (1,354)               5.47898384E-02
    284     (1,355)               5.47858251E-02
    285     (1,356)               5.47860926E-02
    286     (1,357)               5.47858251E-02
    287     (1,358)               5.47858251E-02
    288     (1,359)               5.47859589E-02
    289     (1,360)               5.47852900E-02
    290     (1,361)               5.48250214E-02
    291     (1,362)               5.48239512E-02
    292     (1,363)               5.47862264E-02
    293     (1,364)               5.47858251E-02
    294     (1,365)               5.47862264E-02
    295     (1,366)               5.47855575E-02
    296     (1,367)               5.47891695E-02
    297     (1,368)               5.47989351E-02
    298     (1,369)               5.47959920E-02
    299     (1,370)               5.48056239E-02
    300     (1,371)               1.36970248E-02
    301     (1,372)               1.37158872E-02
    302     (1,373)               1.36959546E-02
    303     (1,374)               1.36960884E-02
    304     (1,375)               1.36960884E-02
    305     (1,376)               1.36952857E-02
    306     (1,377)               1.37161547E-02
    307     (1,378)               1.36967573E-02
    308     (1,379)               1.36960884E-02
    309     (1,380)               1.36967573E-02
    310     (1,381)               1.36954195E-02
    311     (1,382)               1.36966235E-02
    312     (1,383)               5.47966609E-02
    313     (1,384)               5.47859589E-02
    314     (1,385)               5.47858251E-02
    315     (1,386)               5.47851562E-02
    316     (1,387)               5.47860926E-02
    317     (1,388)               5.47858251E-02
    318     (1,389)               5.48242187E-02
    319     (1,390)               5.48242187E-02
    320     (1,391)               5.47903735E-02
    321     (1,392)               5.47886344E-02
    322     (1,393)               5.47858251E-02
    323     (1,394)               5.47856913E-02
    324     (1,395)               5.47858251E-02
    325     (1,396)               5.47856913E-02
    326     (1,397)               5.47856913E-02
    327     (1,398)               5.48242187E-02
    328     (1,399)               5.48242187E-02
    329     (1,400)               5.47854238E-02
    330     (1,401)               5.47858251E-02
    331     (1,402)               5.47855575E-02
    332     (1,403)               5.47858251E-02
    333     (1,404)               5.47859589E-02
    334     (1,405)               5.47859589E-02
    335     (1,406)               5.47894370E-02
    336     (1,407)               5.47899721E-02
    337     (1,408)               5.48240849E-02
    338     (1,409)               5.48242187E-02
    357     (1,430)               5.47858251E-02
    358     (1,431)               5.47858251E-02
    359     (1,432)               5.47854238E-02
    360     (1,433)               5.47895708E-02
    361     (1,434)               5.48280982E-02
    362     (1,435)               5.48242187E-02
    363     (1,436)               5.47856913E-02
    364     (1,437)               5.47855575E-02
    365     (1,438)               5.47854238E-02
    366     (1,439)               5.47852900E-02
    367     (1,440)               5.47859589E-02
    368     (1,441)               5.47866277E-02
    369     (1,442)               5.47855575E-02
    370     (1,443)               5.48246200E-02
    371     (1,444)               5.48244863E-02
    372     (1,445)               5.47855575E-02
    373     (1,446)               5.47860926E-02
    374     (1,447)               5.47895708E-02
    375     (1,448)               5.47895708E-02
    376     (1,449)               5.47856913E-02
    377     (1,450)               5.47859589E-02
    378     (1,451)               5.47855575E-02
    379     (1,452)               5.47969285E-02
    380     (1,453)               5.48246200E-02
    381     (1,454)               1.36967573E-02
    382     (1,455)               1.36962222E-02
    383     (1,456)               1.37157534E-02
    384     (1,457)               1.36968910E-02
    385     (1,458)               5.48073630E-02
    386     (1,459)               5.47858251E-02
    387     (1,460)               5.47859589E-02
    388     (1,461)               5.47858251E-02
    389     (1,462)               5.47852900E-02
    390     (1,463)               5.47848887E-02
    391     (1,464)               5.47859589E-02
    392     (1,465)               5.48279644E-02
    393     (1,466)               5.48289009E-02
    394     (1,467)               5.47862264E-02
    395     (1,468)               5.47852900E-02
    396     (1,469)               5.47852900E-02
    397     (1,470)               5.47858251E-02
    398     (1,471)               5.47854238E-02
    399     (1,472)               5.47852900E-02
    400     (1,473)               5.47856913E-02
    401     (1,474)               5.48242187E-02
    402     (1,475)               5.48244863E-02
    403     (1,476)               5.47854238E-02
    404     (1,477)               5.47859589E-02
    405     (1,478)               5.47855575E-02
    406     (1,479)               5.47856913E-02
    407     (1,480)               5.47895708E-02
    408     (1,481)               5.47894370E-02
    409     (1,482)               5.47860926E-02
    410     (1,483)               5.47859589E-02
    431     (1,506)               5.47856913E-02
    432     (1,507)               5.47858251E-02
    433     (1,508)               5.47897046E-02
    434     (1,509)               5.47897046E-02
    435     (1,510)               5.47855575E-02
    436     (1,511)               5.48246200E-02
    437     (1,512)               5.48246200E-02
    438     (1,513)               5.47860926E-02
    439     (1,514)               5.47858251E-02
    440     (1,515)               5.47855575E-02
    441     (1,516)               5.47862264E-02
    442     (1,517)               5.47866277E-02
    443     (1,518)               5.47856913E-02
    444     (1,519)               5.47858251E-02
    445     (1,520)               5.48244863E-02
    446     (1,521)               5.48244863E-02
    447     (1,522)               5.47897046E-02
    448     (1,523)               5.47894370E-02
    449     (1,524)               5.47866277E-02
    450     (1,525)               5.47859589E-02
    451     (1,526)               5.47859589E-02
    452     (1,527)               5.47856913E-02
    453     (1,528)               5.47856913E-02
    454     (1,529)               5.47943867E-02
    455     (1,530)               1.36963559E-02
    456     (1,531)               1.37178938E-02
    457     (1,532)               1.36983626E-02
    458     (1,533)               1.36962222E-02
    459     (1,534)               1.36962222E-02
    460     (1,535)               1.36966235E-02
    461     (1,536)               1.37154859E-02
    462     (1,537)               1.36964897E-02
    463     (1,538)               5.48052226E-02
    464     (1,539)               5.47859589E-02
    465     (1,540)               5.47858251E-02
    466     (1,541)               5.47858251E-02
    467     (1,542)               5.47856913E-02
    468     (1,543)               5.47898384E-02
    469     (1,544)               5.47894370E-02
    470     (1,545)               5.48240849E-02
    471     (1,546)               5.48252889E-02
    472     (1,547)               5.47856913E-02
    473     (1,548)               5.47859589E-02
    474     (1,549)               5.47854238E-02
    475     (1,550)               5.47862264E-02
    476     (1,551)               5.47860926E-02
    477     (1,552)               5.47859589E-02
    478     (1,553)               5.47860926E-02
    479     (1,554)               5.48243525E-02
    480     (1,555)               5.48248876E-02
    481     (1,556)               5.47858251E-02
    482     (1,557)               5.47851562E-02
    483     (1,558)               5.47895708E-02
    484     (1,559)               5.47901059E-02
    485     (1,560)               5.47858251E-02
    486     (1,561)               5.47856913E-02
    487     (1,562)               5.47856913E-02
    509     (1,586)               5.47859589E-02
    510     (1,587)               5.47894370E-02
    511     (1,588)               5.47895708E-02
    512     (1,589)               5.47860926E-02
    513     (1,590)               5.47858251E-02
    514     (1,591)               5.47859589E-02
    515     (1,592)               5.48242187E-02
    516     (1,593)               5.48248876E-02
    517     (1,594)               5.47854238E-02
    518     (1,595)               5.47860926E-02
    519     (1,596)               5.47852900E-02
    520     (1,597)               5.47856913E-02
    521     (1,598)               5.47856913E-02
    522     (1,599)               5.47855575E-02
    523     (1,600)               5.47859589E-02
    524     (1,601)               5.48282320E-02
    525     (1,602)               5.48280982E-02
    526     (1,603)               5.47852900E-02
    527     (1,604)               5.47863602E-02
    528     (1,605)               5.47862264E-02
    529     (1,606)               5.47864940E-02
    530     (1,607)               5.47859589E-02
    531     (1,608)               5.47856913E-02
    532     (1,609)               5.47863602E-02
    533     (1,610)               5.48060252E-02
    534     (1,611)               1.36960884E-02
    535     (1,612)               1.37157534E-02
    536     (1,613)               1.36964897E-02
    537     (1,614)               1.36962222E-02
    538     (1,615)               1.36966235E-02
    539     (1,616)               1.36963559E-02
    540     (1,617)               1.37160210E-02
    541     (1,618)               1.36967573E-02
    542     (1,619)               5.48062928E-02
    543     (1,620)               5.47855575E-02
    544     (1,621)               5.47860926E-02
    545     (1,622)               5.47891695E-02
    546     (1,623)               5.47894370E-02
    547     (1,624)               5.47854238E-02
    548     (1,625)               5.47855575E-02
    549     (1,626)               5.48240849E-02
    550     (1,627)               5.48244863E-02
    551     (1,628)               5.47864940E-02
    552     (1,629)               5.47855575E-02
    553     (1,630)               5.47859589E-02
    554     (1,631)               5.47854238E-02
    555     (1,632)               5.47854238E-02
    556     (1,633)               5.47858251E-02
    557     (1,634)               5.47856913E-02
    558     (1,635)               5.48243525E-02
    559     (1,636)               5.48242187E-02
    560     (1,637)               5.47889019E-02
    561     (1,638)               5.47891695E-02
    562     (1,639)               5.47855575E-02
    563     (1,640)               5.47855575E-02
    564     (1,641)               5.47860926E-02
    565     (1,642)               5.47862264E-02
    588     (1,667)               5.47902397E-02
    589     (1,668)               5.47895708E-02
    590     (1,669)               5.47859589E-02
    591     (1,670)               5.47858251E-02
    592     (1,671)               5.47855575E-02
    593     (1,672)               5.47862264E-02
    594     (1,673)               5.47858251E-02
    595     (1,674)               5.48250214E-02
    596     (1,675)               5.48242187E-02
    597     (1,676)               5.47860926E-02
    598     (1,677)               5.47856913E-02
    599     (1,678)               5.47860926E-02
    600     (1,679)               5.47852900E-02
    601     (1,680)               5.47858251E-02
    602     (1,681)               5.47905072E-02
    603     (1,682)               5.47897046E-02
    604     (1,683)               5.48239512E-02
    605     (1,684)               5.48242187E-02
    606     (1,685)               5.47859589E-02
    607     (1,686)               5.47859589E-02
    608     (1,687)               5.47855575E-02
    609     (1,688)               5.47862264E-02
    610     (1,689)               5.47860926E-02
    611     (1,690)               5.47855575E-02
    612     (1,691)               5.47854238E-02
    613     (1,692)               5.48042861E-02
    614     (1,693)               1.36962222E-02
    615     (1,694)               1.37160210E-02
    616     (1,695)               1.36967573E-02
    617     (1,696)               1.36963559E-02
    618     (1,697)               1.36968910E-02
    619     (1,698)               1.36960884E-02
    620     (1,699)               1.37161547E-02
    621     (1,700)               1.36968910E-02
    622     (1,701)               5.48061590E-02
    623     (1,702)               5.47897046E-02
    624     (1,703)               5.47897046E-02
    625     (1,704)               5.47858251E-02
    626     (1,705)               5.47852900E-02
    627     (1,706)               5.47854238E-02
    628     (1,707)               5.47859589E-02
    629     (1,708)               5.48242187E-02
    630     (1,709)               5.48251551E-02
    631     (1,710)               5.47856913E-02
    632     (1,711)               5.47859589E-02
    633     (1,712)               5.47856913E-02
    634     (1,713)               5.47855575E-02
    635     (1,714)               5.47858251E-02
    636     (1,715)               5.47852900E-02
    637     (1,716)               5.47863602E-02
    638     (1,717)               5.48279644E-02
    639     (1,718)               5.48279644E-02
    640     (1,719)               5.47858251E-02
    641     (1,720)               5.47856913E-02
    642     (1,721)               5.47858251E-02
    643     (1,722)               5.47856913E-02
    644     (1,723)               5.47855575E-02
    668     (1,749)               5.48286333E-02
    669     (1,750)               5.47852900E-02
    670     (1,751)               5.47856913E-02
    671     (1,752)               5.47854238E-02
    672     (1,753)               5.47859589E-02
    673     (1,754)               5.47859589E-02
    674     (1,755)               5.47855575E-02
    675     (1,756)               5.47859589E-02
    676     (1,757)               5.48244863E-02
    677     (1,758)               5.48243525E-02
    678     (1,759)               5.47860926E-02
    679     (1,760)               5.47859589E-02
    680     (1,761)               5.47856913E-02
    681     (1,762)               5.47894370E-02
    682     (1,763)               5.47897046E-02
    683     (1,764)               5.47854238E-02
    684     (1,765)               5.47855575E-02
    685     (1,766)               5.48242187E-02
    686     (1,767)               5.48243525E-02
    687     (1,768)               5.47856913E-02
    688     (1,769)               5.47856913E-02
    689     (1,770)               5.47854238E-02
    690     (1,771)               5.47856913E-02
    691     (1,772)               5.47854238E-02
    692     (1,773)               5.47860926E-02
    693     (1,774)               5.47854238E-02
    694     (1,775)               5.48049550E-02
    695     (1,776)               1.36964897E-02
    696     (1,777)               1.37161547E-02
    697     (1,778)               1.36964897E-02
    698     (1,779)               1.36970248E-02
    699     (1,780)               1.36963559E-02
    700     (1,781)               1.36962222E-02
    701     (1,782)               1.37153521E-02
    702     (1,783)               1.36982288E-02
    703     (1,784)               5.48088345E-02
    704     (1,785)               5.47859589E-02
    705     (1,786)               5.47859589E-02
    706     (1,787)               5.47858251E-02
    707     (1,788)               5.47856913E-02
    708     (1,789)               5.47859589E-02
    709     (1,790)               5.47860926E-02
    710     (1,791)               5.48244863E-02
    711     (1,792)               5.48242187E-02
    712     (1,793)               5.47858251E-02
    713     (1,794)               5.47856913E-02
    714     (1,795)               5.47855575E-02
    715     (1,796)               5.47862264E-02
    716     (1,797)               5.47854238E-02
    717     (1,798)               5.47897046E-02
    718     (1,799)               5.47893032E-02
    719     (1,800)               5.48246200E-02
    720     (1,801)               5.48242187E-02
    721     (1,802)               5.47859589E-02
    722     (1,803)               5.47858251E-02
    723     (1,804)               5.47855575E-02
    724     (1,805)               5.47855575E-02
    749     (1,832)               5.48243525E-02
    750     (1,833)               5.48239512E-02
    751     (1,834)               5.47855575E-02
    752     (1,835)               5.47854238E-02
    753     (1,836)               5.47858251E-02
    754     (1,837)               5.47855575E-02
    755     (1,838)               5.47862264E-02
    756     (1,839)               5.47855575E-02
    757     (1,840)               5.47859589E-02
    758     (1,841)               5.48246200E-02
    759     (1,842)               5.48244863E-02
    760     (1,843)               5.47860926E-02
    761     (1,844)               5.47899721E-02
    762     (1,845)               5.47898384E-02
    763     (1,846)               5.47859589E-02
    764     (1,847)               5.47859589E-02
    765     (1,848)               5.47855575E-02
    766     (1,849)               5.47859589E-02
    767     (1,850)               5.48240849E-02
    768     (1,851)               5.48248876E-02
    769     (1,852)               5.47860926E-02
    770     (1,853)               5.47859589E-02
    771     (1,854)               5.47855575E-02
    772     (1,855)               5.47856913E-02
    773     (1,856)               5.47852900E-02
    774     (1,857)               5.47851562E-02
    775     (1,858)               5.47859589E-02
    776     (1,859)               5.48081656E-02
    777     (1,860)               1.36982288E-02
    778     (1,861)               1.37164223E-02
    779     (1,862)               1.36968910E-02
    780     (1,863)               1.36962222E-02
    781     (1,864)               1.36966235E-02
    782     (1,865)               1.36964897E-02
    783     (1,866)               1.37154859E-02
    784     (1,867)               1.36955533E-02
    785     (1,868)               5.48040186E-02
    786     (1,869)               5.47860926E-02
    787     (1,870)               5.47860926E-02
    788     (1,871)               5.47858251E-02
    789     (1,872)               5.47860926E-02
    790     (1,873)               5.47848887E-02
    791     (1,874)               5.47859589E-02
    792     (1,875)               5.48250214E-02
    793     (1,876)               5.48246200E-02
    794     (1,877)               5.47851562E-02
    795     (1,878)               5.47862264E-02
    796     (1,879)               5.47856913E-02
    797     (1,880)               5.47893032E-02
    798     (1,881)               5.47893032E-02
    799     (1,882)               5.47860926E-02
    800     (1,883)               5.47859589E-02
    801     (1,884)               5.48244863E-02
    802     (1,885)               5.48246200E-02
    803     (1,886)               5.47860926E-02
    804     (1,887)               5.47856913E-02
    805     (1,888)               5.47860926E-02
    806     (1,889)               5.47854238E-02
    830     (1,915)               5.47860926E-02
    831     (1,916)               5.48236836E-02
    832     (1,917)               5.48247538E-02
    833     (1,918)               5.47855575E-02
    834     (1,919)               5.47856913E-02
    835     (1,920)               5.47859589E-02
    836     (1,921)               5.47864940E-02
    837     (1,922)               5.47856913E-02
    838     (1,923)               5.47858251E-02
    839     (1,924)               5.47856913E-02
    840     (1,925)               5.48247538E-02
    841     (1,926)               5.48284995E-02
    842     (1,927)               5.47893032E-02
    843     (1,928)               5.47855575E-02
    844     (1,929)               5.47860926E-02
    845     (1,930)               5.47859589E-02
    846     (1,931)               5.47852900E-02
    847     (1,932)               5.47854238E-02
    848     (1,933)               5.47855575E-02
    849     (1,934)               5.48242187E-02
    850     (1,935)               5.48242187E-02
    851     (1,936)               5.47856913E-02
    852     (1,937)               5.47855575E-02
    853     (1,938)               5.47862264E-02
    854     (1,939)               5.47854238E-02
    855     (1,940)               5.47854238E-02
    856     (1,941)               5.47893032E-02
    857     (1,942)               5.47893032E-02
    858     (1,943)               5.48049550E-02
    859     (1,944)               1.36968910E-02
    860     (1,945)               1.37160210E-02
    861     (1,946)               1.36966235E-02
    862     (1,947)               1.36964897E-02
    863     (1,948)               1.36960884E-02
    864     (1,949)               1.36966235E-02
    865     (1,950)               1.37160210E-02
    866     (1,951)               1.36960884E-02
    867     (1,952)               5.47967947E-02
    868     (1,953)               5.47851562E-02
    869     (1,954)               5.47852900E-02
    870     (1,955)               5.47862264E-02
    871     (1,956)               5.47859589E-02
    872     (1,957)               5.47855575E-02
    873     (1,958)               5.47856913E-02
    874     (1,959)               5.48243525E-02
    875     (1,960)               5.48246200E-02
    876     (1,961)               5.47858251E-02
    877     (1,962)               5.47895708E-02
    878     (1,963)               5.47898384E-02
    879     (1,964)               5.47854238E-02
    880     (1,965)               5.47856913E-02
    881     (1,966)               5.47860926E-02
    882     (1,967)               5.47855575E-02
    883     (1,968)               5.48247538E-02
    884     (1,969)               5.48236836E-02
    885     (1,970)               5.47854238E-02
    886     (1,971)               5.47860926E-02
    887     (1,972)               5.47854238E-02
    911     (1,998)               5.47854238E-02
    912     (1,999)               5.47856913E-02
    913     (1,1000)              5.48240849E-02
    914     (1,1001)              5.48246200E-02
    915     (1,1002)              5.47856913E-02
    916     (1,1003)              5.47855575E-02
    917     (1,1004)              5.47852900E-02
    918     (1,1005)              5.47854238E-02
    919     (1,1006)              5.47858251E-02
    920     (1,1007)              5.47855575E-02
    921     (1,1008)              5.47901059E-02
    922     (1,1009)              5.48290346E-02
    923     (1,1010)              5.48243525E-02
    924     (1,1011)              5.47860926E-02
    925     (1,1012)              5.47863602E-02
    926     (1,1013)              5.47858251E-02
    927     (1,1014)              5.47860926E-02
    928     (1,1015)              5.47854238E-02
    929     (1,1016)              5.47858251E-02
    930     (1,1017)              5.47859589E-02
    931     (1,1018)              5.48243525E-02
    932     (1,1019)              5.48240849E-02
    933     (1,1020)              5.47858251E-02
    934     (1,1021)              5.47852900E-02
    935     (1,1022)              5.47855575E-02
    936     (1,1023)              5.47897046E-02
    937     (1,1024)              5.47899721E-02
    938     (1,1025)              5.47855575E-02
    939     (1,1026)              5.47855575E-02
    940     (1,1027)              5.48048212E-02
    941     (1,1028)              1.36962222E-02
    942     (1,1029)              1.37161547E-02
    943     (1,1030)              1.36972924E-02
    944     (1,1031)              1.36962222E-02
    945     (1,1032)              5.48252889E-02
    946     (1,1033)              5.47858251E-02
    947     (1,1034)              5.47860926E-02
    948     (1,1035)              5.47854238E-02
    949     (1,1036)              5.47856913E-02
    950     (1,1037)              5.47862264E-02
    951     (1,1038)              5.47859589E-02
    952     (1,1039)              5.47859589E-02
    953     (1,1040)              5.48252889E-02
    954     (1,1041)              5.48279644E-02
    955     (1,1042)              5.47894370E-02
    956     (1,1043)              5.47856913E-02
    957     (1,1044)              5.47855575E-02
    958     (1,1045)              5.47855575E-02
    959     (1,1046)              5.47852900E-02
    960     (1,1047)              5.47854238E-02
    961     (1,1048)              5.47859589E-02
    962     (1,1049)              5.48247538E-02
    963     (1,1050)              5.48239512E-02
    964     (1,1051)              5.47854238E-02
    965     (1,1052)              5.47854238E-02
    966     (1,1053)              5.47859589E-02
    989     (1,1078)              5.47858251E-02
    990     (1,1079)              5.47855575E-02
    991     (1,1080)              5.47860926E-02
    992     (1,1081)              5.48246200E-02
    993     (1,1082)              5.48246200E-02
    994     (1,1083)              5.47858251E-02
    995     (1,1084)              5.47859589E-02
    996     (1,1085)              5.47854238E-02
    997     (1,1086)              5.47856913E-02
    998     (1,1087)              5.47894370E-02
    999     (1,1088)              5.47895708E-02
    1000    (1,1089)              5.47860926E-02
    1001    (1,1090)              5.48239512E-02
    1002    (1,1091)              5.48244863E-02
    1003    (1,1092)              5.47863602E-02
    1004    (1,1093)              5.47854238E-02
    1005    (1,1094)              5.47862264E-02
    1006    (1,1095)              5.47855575E-02
    1007    (1,1096)              5.47860926E-02
    1008    (1,1097)              5.47854238E-02
    1009    (1,1098)              5.47862264E-02
    1010    (1,1099)              5.48242187E-02
    1011    (1,1100)              5.48246200E-02
    1012    (1,1101)              5.47860926E-02
    1013    (1,1102)              5.47897046E-02
    1014    (1,1103)              5.47898384E-02
    1015    (1,1104)              5.47858251E-02
    1016    (1,1105)              5.47858251E-02
    1017    (1,1106)              5.47856913E-02
    1018    (1,1107)              5.47947881E-02
    1019    (1,1108)              1.36967573E-02
    1020    (1,1109)              1.36964897E-02
    1021    (1,1110)              1.36967573E-02
    1022    (1,1111)              1.36966235E-02
    1023    (1,1112)              5.48050888E-02
    1024    (1,1113)              5.48243525E-02
    1025    (1,1114)              5.47859589E-02
    1026    (1,1115)              5.47859589E-02
    1027    (1,1116)              5.47860926E-02
    1028    (1,1117)              5.47860926E-02
    1029    (1,1118)              5.47859589E-02
    1030    (1,1119)              5.47862264E-02
    1031    (1,1120)              5.47894370E-02
    1032    (1,1121)              5.48278306E-02
    1033    (1,1122)              5.48246200E-02
    1034    (1,1123)              5.47856913E-02
    1035    (1,1124)              5.47862264E-02
    1036    (1,1125)              5.47860926E-02
    1037    (1,1126)              5.47858251E-02
    1038    (1,1127)              5.47858251E-02
    1039    (1,1128)              5.47855575E-02
    1040    (1,1129)              5.47854238E-02
    1041    (1,1130)              5.48243525E-02
    1042    (1,1131)              5.48243525E-02
    1043    (1,1132)              5.47858251E-02
    1044    (1,1133)              5.47851562E-02
    1045    (1,1134)              5.47894370E-02
    1067    (1,1158)              5.47859589E-02
    1068    (1,1159)              5.47851562E-02
    1069    (1,1160)              5.47854238E-02
    1070    (1,1161)              5.47859589E-02
    1071    (1,1162)              5.48247538E-02
    1072    (1,1163)              5.48239512E-02
    1073    (1,1164)              5.47862264E-02
    1074    (1,1165)              5.47859589E-02
    1075    (1,1166)              5.47890357E-02
    1076    (1,1167)              5.47890357E-02
    1077    (1,1168)              5.47856913E-02
    1078    (1,1169)              5.47855575E-02
    1079    (1,1170)              5.47862264E-02
    1080    (1,1171)              5.48242187E-02
    1081    (1,1172)              5.48246200E-02
    1082    (1,1173)              5.47852900E-02
    1083    (1,1174)              5.47860926E-02
    1084    (1,1175)              5.47862264E-02
    1085    (1,1176)              5.47854238E-02
    1086    (1,1177)              5.47858251E-02
    1087    (1,1178)              5.47858251E-02
    1088    (1,1179)              5.47863602E-02
    1089    (1,1180)              5.48247538E-02
    1090    (1,1181)              5.48286333E-02
    1091    (1,1182)              5.47893032E-02
    1092    (1,1183)              5.47855575E-02
    1093    (1,1184)              5.47856913E-02
    1094    (1,1185)              5.47863602E-02
    1095    (1,1186)              5.47859589E-02
    1096    (1,1187)              5.47943867E-02
    1097    (1,1188)              1.36958208E-02
    1098    (1,1189)              1.36967573E-02
    1099    (1,1190)              1.36963559E-02
    1100    (1,1191)              1.36968910E-02
    1101    (1,1192)              1.36963559E-02
    1102    (1,1193)              1.36984963E-02
    1103    (1,1194)              1.36986301E-02
    1104    (1,1195)              1.36964897E-02
    1105    (1,1196)              5.48137842E-02
    1106    (1,1197)              5.48244863E-02
    1107    (1,1198)              5.47860926E-02
    1108    (1,1199)              5.47858251E-02
    1109    (1,1200)              5.47858251E-02
    1110    (1,1201)              5.47859589E-02
    1111    (1,1202)              5.47894370E-02
    1112    (1,1203)              5.47897046E-02
    1113    (1,1204)              5.47855575E-02
    1114    (1,1205)              5.48252889E-02
    1115    (1,1206)              5.48246200E-02
    1116    (1,1207)              5.47858251E-02
    1117    (1,1208)              5.47866277E-02
    1118    (1,1209)              5.47855575E-02
    1119    (1,1210)              5.47854238E-02
    1120    (1,1211)              5.47859589E-02
    1121    (1,1212)              5.47856913E-02
    1122    (1,1213)              5.47862264E-02
    1123    (1,1214)              5.48243525E-02
    1124    (1,1215)              5.48247538E-02
    1125    (1,1216)              5.47889019E-02
    1126    (1,1217)              5.47893032E-02
    1127    (1,1218)              5.47856913E-02
    1148    (1,1241)              5.47855575E-02
    1149    (1,1242)              5.47855575E-02
    1150    (1,1243)              5.47850224E-02
    1151    (1,1244)              5.47859589E-02
    1152    (1,1245)              5.47856913E-02
    1153    (1,1246)              5.48248876E-02
    1154    (1,1247)              5.48248876E-02
    1155    (1,1248)              5.47902397E-02
    1156    (1,1249)              5.47901059E-02
    1157    (1,1250)              5.47860926E-02
    1158    (1,1251)              5.47860926E-02
    1159    (1,1252)              5.47858251E-02
    1160    (1,1253)              5.47856913E-02
    1161    (1,1254)              5.47855575E-02
    1162    (1,1255)              5.48248876E-02
    1163    (1,1256)              5.48244863E-02
    1164    (1,1257)              5.47860926E-02
    1165    (1,1258)              5.47859589E-02
    1166    (1,1259)              5.47863602E-02
    1167    (1,1260)              5.47858251E-02
    1168    (1,1261)              5.47862264E-02
    1169    (1,1262)              5.47856913E-02
    1170    (1,1263)              5.47906410E-02
    1171    (1,1264)              5.48275631E-02
    1172    (1,1265)              5.48240849E-02
    1173    (1,1266)              5.47863602E-02
    1174    (1,1267)              5.47856913E-02
    1175    (1,1268)              5.47860926E-02
    1176    (1,1269)              5.47860926E-02
    1177    (1,1270)              5.47860926E-02
    1178    (1,1271)              5.48069616E-02
    1179    (1,1272)              1.36956871E-02
    1180    (1,1273)              1.36970248E-02
    1181    (1,1274)              1.36962222E-02
    1182    (1,1275)              1.36962222E-02
    1183    (1,1276)              5.47749893E-02
    1184    (1,1277)              5.48248876E-02
    1185    (1,1278)              5.48248876E-02
    1186    (1,1279)              5.47859589E-02
    1187    (1,1280)              5.47854238E-02
    1188    (1,1281)              5.47902397E-02
    1189    (1,1282)              5.47899721E-02
    1190    (1,1283)              5.47863602E-02
    1191    (1,1284)              5.47854238E-02
    1192    (1,1285)              5.47862264E-02
    1193    (1,1286)              5.48242187E-02
    1194    (1,1287)              5.48246200E-02
    1195    (1,1288)              5.47864940E-02
    1196    (1,1289)              5.47860926E-02
    1197    (1,1290)              5.47856913E-02
    1198    (1,1291)              5.47855575E-02
    1199    (1,1292)              5.47855575E-02
    1200    (1,1293)              5.47855575E-02
    1201    (1,1294)              5.47858251E-02
    1202    (1,1295)              5.48279644E-02
    1203    (1,1296)              5.48282320E-02
    1204    (1,1297)              5.47856913E-02
    1205    (1,1298)              5.47862264E-02
    1206    (1,1299)              5.47862264E-02
    1207    (1,1300)              5.47859589E-02
    1226    (1,1320)              5.47866277E-02
    1227    (1,1321)              5.47859589E-02
    1228    (1,1322)              5.47863602E-02
    1229    (1,1323)              5.47860926E-02
    1230    (1,1324)              5.47855575E-02
    1231    (1,1325)              5.47863602E-02
    1232    (1,1326)              5.48287671E-02
    1233    (1,1327)              5.48282320E-02
    1234    (1,1328)              5.47858251E-02
    1235    (1,1329)              5.47855575E-02
    1236    (1,1330)              5.47856913E-02
    1237    (1,1331)              5.47856913E-02
    1238    (1,1332)              5.47858251E-02
    1239    (1,1333)              5.47858251E-02
    1240    (1,1334)              5.47859589E-02
    1241    (1,1335)              5.48243525E-02
    1242    (1,1336)              5.48250214E-02
    1243    (1,1337)              5.47858251E-02
    1244    (1,1338)              5.47852900E-02
    1245    (1,1339)              5.47860926E-02
    1246    (1,1340)              5.47859589E-02
    1247    (1,1341)              5.47893032E-02
    1248    (1,1342)              5.47898384E-02
    1249    (1,1343)              5.47858251E-02
    1250    (1,1344)              5.48246200E-02
    1251    (1,1345)              5.48239512E-02
    1252    (1,1346)              5.47856913E-02
    1253    (1,1347)              5.47851562E-02
    1254    (1,1348)              5.47854238E-02
    1255    (1,1349)              5.47855575E-02
    1256    (1,1350)              5.48062928E-02
    1257    (1,1351)              1.36968910E-02
    1258    (1,1352)              1.36964897E-02
    1259    (1,1353)              1.36962222E-02
    1260    (1,1354)              1.36966235E-02
    1261    (1,1355)              5.47761932E-02
    1262    (1,1356)              5.47858251E-02
    1263    (1,1357)              5.48244863E-02
    1264    (1,1358)              5.48239512E-02
    1265    (1,1359)              5.47894370E-02
    1266    (1,1360)              5.47901059E-02
    1267    (1,1361)              5.47859589E-02
    1268    (1,1362)              5.47862264E-02
    1269    (1,1363)              5.47859589E-02
    1270    (1,1364)              5.47860926E-02
    1271    (1,1365)              5.47755244E-02
    1272    (1,1366)              5.48136504E-02
    1273    (1,1367)              5.48242187E-02
    1274    (1,1368)              5.47858251E-02
    1275    (1,1369)              5.47858251E-02
    1276    (1,1370)              5.47858251E-02
    1277    (1,1371)              5.47854238E-02
    1278    (1,1372)              5.47856913E-02
    1279    (1,1373)              5.47897046E-02
    1280    (1,1374)              5.47894370E-02
    1281    (1,1375)              5.48246200E-02
    1282    (1,1376)              5.48246200E-02
    1283    (1,1377)              5.47858251E-02
    1284    (1,1378)              5.47858251E-02
    1285    (1,1379)              5.47859589E-02
    1286    (1,1380)              5.47855575E-02
    1304    (1,1400)              5.47858251E-02
    1305    (1,1401)              5.47863602E-02
    1306    (1,1402)              5.47862264E-02
    1307    (1,1403)              5.47897046E-02
    1308    (1,1404)              5.47899721E-02
    1309    (1,1405)              5.48242187E-02
    1310    (1,1406)              5.48243525E-02
    1311    (1,1407)              5.47855575E-02
    1312    (1,1408)              5.47854238E-02
    1313    (1,1409)              5.47858251E-02
    1314    (1,1410)              5.47858251E-02
    1315    (1,1411)              5.47855575E-02
    1316    (1,1412)              5.47858251E-02
    1317    (1,1413)              5.47859589E-02
    1318    (1,1414)              5.48244863E-02
    1319    (1,1415)              5.48247538E-02
    1320    (1,1416)              5.47859589E-02
    1321    (1,1417)              5.47862264E-02
    1322    (1,1418)              5.47899721E-02
    1323    (1,1419)              5.47887681E-02
    1324    (1,1420)              5.47860926E-02
    1325    (1,1421)              5.47858251E-02
    1326    (1,1422)              5.47855575E-02
    1327    (1,1423)              5.48246200E-02
    1328    (1,1424)              5.48246200E-02
    1329    (1,1425)              5.47860926E-02
    1330    (1,1426)              5.47860926E-02
    1331    (1,1427)              5.47773972E-02
    1332    (1,1428)              1.36964897E-02
    1333    (1,1429)              1.36966235E-02
    1334    (1,1430)              1.36960884E-02
    1335    (1,1431)              1.36963559E-02
    1336    (1,1432)              1.37160210E-02
    1337    (1,1433)              1.36967573E-02
    1338    (1,1434)              1.36967573E-02
    1339    (1,1435)              1.37153521E-02
    1340    (1,1436)              5.47661601E-02
    1341    (1,1437)              5.47855575E-02
    1342    (1,1438)              5.47854238E-02
    1343    (1,1439)              5.48283657E-02
    1344    (1,1440)              5.48278306E-02
    1345    (1,1441)              5.47858251E-02
    1346    (1,1442)              5.47860926E-02
    1347    (1,1443)              5.47859589E-02
    1348    (1,1444)              5.47862264E-02
    1349    (1,1445)              5.47840860E-02
    1350    (1,1446)              1.36967573E-02
    1351    (1,1447)              1.36967573E-02
    1352    (1,1448)              1.36967573E-02
    1353    (1,1449)              1.36967573E-02
    1354    (1,1450)              1.36959546E-02
    1355    (1,1451)              1.36986301E-02
    1356    (1,1452)              1.36983626E-02
    1357    (1,1453)              1.36967573E-02
    1358    (1,1454)              5.48044199E-02
    1359    (1,1455)              5.48250214E-02
    1360    (1,1456)              5.47858251E-02
    1361    (1,1457)              5.47855575E-02
    1362    (1,1458)              5.47858251E-02
    1363    (1,1459)              5.47858251E-02
    1364    (1,1460)              5.47898384E-02
    1365    (1,1461)              5.47860926E-02
    1366    (1,1462)              5.47859589E-02
    1367    (1,1463)              5.48250214E-02
    1368    (1,1464)              5.48244863E-02
    1369    (1,1465)              5.47859589E-02
    1370    (1,1466)              5.47859589E-02
    1371    (1,1467)              5.47855575E-02
    1389    (1,1487)              5.47858251E-02
    1390    (1,1488)              5.47902397E-02
    1391    (1,1489)              5.47898384E-02
    1392    (1,1490)              5.47859589E-02
    1393    (1,1491)              5.47860926E-02
    1394    (1,1492)              5.48240849E-02
    1395    (1,1493)              5.48242187E-02
    1396    (1,1494)              5.47854238E-02
    1397    (1,1495)              5.47855575E-02
    1398    (1,1496)              5.47859589E-02
    1399    (1,1497)              5.47855575E-02
    1400    (1,1498)              5.47856913E-02
    1401    (1,1499)              5.47858251E-02
    1402    (1,1500)              5.47859589E-02
    1403    (1,1501)              5.48247538E-02
    1404    (1,1502)              5.48247538E-02
    1405    (1,1503)              5.47901059E-02
    1406    (1,1504)              5.47897046E-02
    1407    (1,1505)              5.47851562E-02
    1408    (1,1506)              5.47854238E-02
    1409    (1,1507)              5.47856913E-02
    1410    (1,1508)              5.47854238E-02
    1411    (1,1509)              5.47856913E-02
    1412    (1,1510)              5.48244863E-02
    1413    (1,1511)              5.48244863E-02
    1414    (1,1512)              5.47859589E-02
    1415    (1,1513)              5.47773972E-02
    1416    (1,1514)              1.36962222E-02
    1417    (1,1515)              1.36967573E-02
    1418    (1,1516)              1.36960884E-02
    1419    (1,1517)              1.36960884E-02
    1420    (1,1518)              1.36966235E-02
    1421    (1,1519)              1.36972924E-02
    1422    (1,1520)              1.36967573E-02
    1423    (1,1521)              1.36964897E-02
    1424    (1,1522)              1.37161547E-02
    1425    (1,1523)              1.36964897E-02
    1426    (1,1524)              1.36966235E-02
    1427    (1,1525)              1.37164223E-02
    1428    (1,1526)              5.47666952E-02
    1429    (1,1527)              5.47798052E-02
    1430    (1,1528)              5.47777985E-02
    1431    (1,1529)              5.48140517E-02
    1432    (1,1530)              5.48234160E-02
    1433    (1,1531)              5.47947881E-02
    1434    (1,1532)              5.47945205E-02
    1435    (1,1533)              5.47834171E-02
    1436    (1,1534)              1.37154859E-02
    1437    (1,1535)              1.36967573E-02
    1438    (1,1536)              1.36968910E-02
    1439    (1,1537)              1.37160210E-02
    1440    (1,1538)              1.36966235E-02
    1441    (1,1539)              1.36983626E-02
    1442    (1,1540)              1.36986301E-02
    1443    (1,1541)              1.36967573E-02
    1444    (1,1542)              1.36962222E-02
    1445    (1,1543)              1.36959546E-02
    1446    (1,1544)              1.36964897E-02
    1447    (1,1545)              1.36962222E-02
    1448    (1,1546)              1.36966235E-02
    1449    (1,1547)              1.36959546E-02
    1450    (1,1548)              1.36964897E-02
    1451    (1,1549)              1.36958208E-02
    1452    (1,1550)              5.48140517E-02
    1453    (1,1551)              5.48240849E-02
    1454    (1,1552)              5.47858251E-02
    1455    (1,1553)              5.47862264E-02
    1456    (1,1554)              5.47893032E-02
    1457    (1,1555)              5.47894370E-02
    1458    (1,1556)              5.47860926E-02
    1459    (1,1557)              5.47859589E-02
    1460    (1,1558)              5.47860926E-02
    1461    (1,1559)              5.48250214E-02
    1462    (1,1560)              5.48243525E-02
    1463    (1,1561)              5.47856913E-02
    1464    (1,1562)              5.47863602E-02
    1465    (1,1563)              5.47860926E-02
    1482    (1,1582)              5.47898384E-02
    1483    (1,1583)              5.47858251E-02
    1484    (1,1584)              5.47858251E-02
    1485    (1,1585)              5.47852900E-02
    1486    (1,1586)              5.47856913E-02
    1487    (1,1587)              5.48244863E-02
    1488    (1,1588)              5.48248876E-02
    1489    (1,1589)              5.47855575E-02
    1490    (1,1590)              5.47855575E-02
    1491    (1,1591)              5.47852900E-02
    1492    (1,1592)              5.47855575E-02
    1493    (1,1593)              5.47860926E-02
    1494    (1,1594)              5.47858251E-02
    1495    (1,1595)              5.47863602E-02
    1496    (1,1596)              5.48282320E-02
    1497    (1,1597)              5.48280982E-02
    1498    (1,1598)              5.47860926E-02
    1499    (1,1599)              5.47860926E-02
    1500    (1,1600)              5.47862264E-02
    1501    (1,1601)              5.47859589E-02
    1502    (1,1602)              5.47863602E-02
    1503    (1,1603)              5.47855575E-02
    1504    (1,1604)              5.47858251E-02
    1505    (1,1605)              5.48244863E-02
    1506    (1,1606)              5.48244863E-02
    1507    (1,1607)              5.47858251E-02
    1508    (1,1608)              5.47753906E-02
    1509    (1,1609)              5.47664276E-02
    1510    (1,1610)              1.36966235E-02
    1511    (1,1611)              1.36958208E-02
    1512    (1,1612)              1.36963559E-02
    1513    (1,1613)              1.36963559E-02
    1514    (1,1614)              1.37158872E-02
    1515    (1,1615)              1.36963559E-02
    1516    (1,1616)              1.36962222E-02
    1517    (1,1617)              1.37180276E-02
    1518    (1,1618)              1.36976937E-02
    1519    (1,1619)              1.36966235E-02
    1520    (1,1620)              1.36958208E-02
    1521    (1,1621)              1.36962222E-02
    1522    (1,1622)              1.36966235E-02
    1523    (1,1623)              1.36966235E-02
    1524    (1,1624)              1.36963559E-02
    1525    (1,1625)              1.36962222E-02
    1526    (1,1626)              1.36966235E-02
    1527    (1,1627)              1.36960884E-02
    1528    (1,1628)              1.36963559E-02
    1529    (1,1629)              1.36968910E-02
    1530    (1,1630)              1.36962222E-02
    1531    (1,1631)              1.37152183E-02
    1532    (1,1632)              1.36962222E-02
    1533    (1,1633)              1.36966235E-02
    1534    (1,1634)              1.36960884E-02
    1535    (1,1635)              1.36966235E-02
    1536    (1,1636)              1.37153521E-02
    1537    (1,1637)              1.36962222E-02
    1538    (1,1638)              1.36956871E-02
    1539    (1,1639)              1.36964897E-02
    1540    (1,1640)              1.36966235E-02
    1541    (1,1641)              1.36967573E-02
    1542    (1,1642)              1.36962222E-02
    1543    (1,1643)              1.36967573E-02
    1544    (1,1644)              1.36964897E-02
    1545    (1,1645)              1.36963559E-02
    1546    (1,1646)              1.36962222E-02
    1547    (1,1647)              1.36982288E-02
    1548    (1,1648)              1.36980950E-02
    1549    (1,1649)              1.36962222E-02
    1550    (1,1650)              1.37154859E-02
    1551    (1,1651)              1.36956871E-02
    1552    (1,1652)              1.36968910E-02
    1553    (1,1653)              1.37154859E-02
    1554    (1,1654)              1.36959546E-02
    1555    (1,1655)              1.36964897E-02
    1556    (1,1656)              1.36967573E-02
    1557    (1,1657)              1.36966235E-02
    1558    (1,1658)              1.36962222E-02
    1559    (1,1659)              1.36964897E-02
    1560    (1,1660)              1.36959546E-02
    1561    (1,1661)              1.36966235E-02
    1562    (1,1662)              5.47657587E-02
    1563    (1,1663)              5.48244863E-02
    1564    (1,1664)              5.48242187E-02
    1565    (1,1665)              5.47893032E-02
    1566    (1,1666)              5.47898384E-02
    1567    (1,1667)              5.47855575E-02
    1568    (1,1668)              5.47856913E-02
    1569    (1,1669)              5.47856913E-02
    1570    (1,1670)              5.47852900E-02
    1571    (1,1671)              5.47856913E-02
    1572    (1,1672)              5.48240849E-02
    1573    (1,1673)              5.48244863E-02
    1574    (1,1674)              5.47854238E-02
    1592    (1,1694)              5.47855575E-02
    1593    (1,1695)              5.47863602E-02
    1594    (1,1696)              5.47860926E-02
    1595    (1,1697)              5.47859589E-02
    1596    (1,1698)              5.47860926E-02
    1597    (1,1699)              5.48246200E-02
    1598    (1,1700)              5.48242187E-02
    1599    (1,1701)              5.47856913E-02
    1600    (1,1702)              5.47864940E-02
    1601    (1,1703)              5.47860926E-02
    1602    (1,1704)              5.47856913E-02
    1603    (1,1705)              5.47856913E-02
    1604    (1,1706)              5.47898384E-02
    1605    (1,1707)              5.47893032E-02
    1606    (1,1708)              5.48244863E-02
    1607    (1,1709)              5.48244863E-02
    1608    (1,1710)              5.47860926E-02
    1609    (1,1711)              5.47856913E-02
    1610    (1,1712)              5.47858251E-02
    1611    (1,1713)              5.47860926E-02
    1612    (1,1714)              5.47856913E-02
    1613    (1,1715)              5.47854238E-02
    1614    (1,1716)              5.47856913E-02
    1615    (1,1717)              5.48244863E-02
    1616    (1,1718)              5.48240849E-02
    1617    (1,1719)              5.47855575E-02
    1618    (1,1720)              5.47856913E-02
    1619    (1,1721)              5.47784674E-02
    1620    (1,1722)              5.47802065E-02
    1621    (1,1723)              5.47959920E-02
    1622    (1,1724)              5.47971960E-02
    1623    (1,1725)              5.47962596E-02
    1624    (1,1726)              5.47962596E-02
    1625    (1,1727)              5.48251551E-02
    1626    (1,1728)              5.48160584E-02
    1627    (1,1729)              5.47775310E-02
    1628    (1,1730)              5.47653574E-02
    1629    (1,1731)              1.36964897E-02
    1630    (1,1732)              1.36964897E-02
    1631    (1,1733)              1.36970248E-02
    1632    (1,1734)              1.36962222E-02
    1633    (1,1735)              1.37153521E-02
    1634    (1,1736)              1.36964897E-02
    1635    (1,1737)              1.36964897E-02
    1636    (1,1738)              1.37157534E-02
    1637    (1,1739)              1.36956871E-02
    1638    (1,1740)              1.36960884E-02
    1639    (1,1741)              1.36964897E-02
    1640    (1,1742)              1.36966235E-02
    1641    (1,1743)              1.36968910E-02
    1642    (1,1744)              1.36968910E-02
    1643    (1,1745)              1.36962222E-02
    1644    (1,1746)              1.36967573E-02
    1645    (1,1747)              5.47745879E-02
    1646    (1,1748)              5.48284995E-02
    1647    (1,1749)              5.48284995E-02
    1648    (1,1750)              5.47858251E-02
    1649    (1,1751)              5.47858251E-02
    1650    (1,1752)              5.47864940E-02
    1651    (1,1753)              5.47860926E-02
    1652    (1,1754)              5.47858251E-02
    1653    (1,1755)              5.47855575E-02
    1654    (1,1756)              5.47859589E-02
    1655    (1,1757)              5.48244863E-02
    1674    (1,1778)              5.47858251E-02
    1675    (1,1779)              5.47862264E-02
    1676    (1,1780)              5.47854238E-02
    1677    (1,1781)              5.47852900E-02
    1678    (1,1782)              5.47859589E-02
    1679    (1,1783)              5.48247538E-02
    1680    (1,1784)              5.48242187E-02
    1681    (1,1785)              5.47855575E-02
    1682    (1,1786)              5.47855575E-02
    1683    (1,1787)              5.47851562E-02
    1684    (1,1788)              5.47894370E-02
    1685    (1,1789)              5.47898384E-02
    1686    (1,1790)              5.47856913E-02
    1687    (1,1791)              5.47856913E-02
    1688    (1,1792)              5.48238174E-02
    1689    (1,1793)              5.48248876E-02
    1690    (1,1794)              5.47858251E-02
    1691    (1,1795)              5.47855575E-02
    1692    (1,1796)              5.47860926E-02
    1693    (1,1797)              5.47859589E-02
    1694    (1,1798)              5.47863602E-02
    1695    (1,1799)              5.47860926E-02
    1696    (1,1800)              5.47858251E-02
    1697    (1,1801)              5.48236836E-02
    1698    (1,1802)              5.48244863E-02
    1699    (1,1803)              5.47886344E-02
    1700    (1,1804)              5.47895708E-02
    1701    (1,1805)              5.47855575E-02
    1702    (1,1806)              5.47862264E-02
    1703    (1,1807)              5.47859589E-02
    1704    (1,1808)              5.47852900E-02
    1705    (1,1809)              5.47854238E-02
    1706    (1,1810)              5.47854238E-02
    1707    (1,1811)              5.48242187E-02
    1708    (1,1812)              5.48242187E-02
    1709    (1,1813)              5.47856913E-02
    1710    (1,1814)              5.47748555E-02
    1711    (1,1815)              5.47777985E-02
    1712    (1,1816)              1.37153521E-02
    1713    (1,1817)              1.36966235E-02
    1714    (1,1818)              1.36966235E-02
    1715    (1,1819)              1.37158872E-02
    1716    (1,1820)              1.36960884E-02
    1717    (1,1821)              1.36963559E-02
    1718    (1,1822)              1.36960884E-02
    1719    (1,1823)              1.36962222E-02
    1720    (1,1824)              5.47790025E-02
    1721    (1,1825)              5.47895708E-02
    1722    (1,1826)              5.48251551E-02
    1723    (1,1827)              5.48242187E-02
    1724    (1,1828)              5.47852900E-02
    1725    (1,1829)              5.47859589E-02
    1726    (1,1830)              5.47860926E-02
    1727    (1,1831)              5.47848887E-02
    1728    (1,1832)              5.47852900E-02
    1729    (1,1833)              5.47856913E-02
    1749    (1,1855)              5.47852900E-02
    1750    (1,1856)              5.47852900E-02
    1751    (1,1857)              5.47856913E-02
    1752    (1,1858)              5.47859589E-02
    1753    (1,1859)              5.47855575E-02
    1754    (1,1860)              5.48243525E-02
    1755    (1,1861)              5.48243525E-02
    1756    (1,1862)              5.47856913E-02
    1757    (1,1863)              5.47891695E-02
    1758    (1,1864)              5.47897046E-02
    1759    (1,1865)              5.47858251E-02
    1760    (1,1866)              5.47858251E-02
    1761    (1,1867)              5.47859589E-02
    1762    (1,1868)              5.47858251E-02
    1763    (1,1869)              5.48243525E-02
    1764    (1,1870)              5.48239512E-02
    1765    (1,1871)              5.47859589E-02
    1766    (1,1872)              5.47862264E-02
    1767    (1,1873)              5.47854238E-02
    1768    (1,1874)              5.47852900E-02
    1769    (1,1875)              5.47859589E-02
    1770    (1,1876)              5.47856913E-02
    1771    (1,1877)              5.47859589E-02
    1772    (1,1878)              5.48275631E-02
    1773    (1,1879)              5.48276969E-02
    1774    (1,1880)              5.47858251E-02
    1775    (1,1881)              5.47860926E-02
    1776    (1,1882)              5.47858251E-02
    1777    (1,1883)              5.47854238E-02
    1778    (1,1884)              5.47856913E-02
    1779    (1,1885)              5.47855575E-02
    1780    (1,1886)              5.47859589E-02
    1781    (1,1887)              5.47854238E-02
    1782    (1,1888)              5.48248876E-02
    1783    (1,1889)              5.48246200E-02
    1784    (1,1890)              5.47767283E-02
    1785    (1,1891)              1.36958208E-02
    1786    (1,1892)              1.36959546E-02
    1787    (1,1893)              1.36960884E-02
    1788    (1,1894)              1.36963559E-02
    1789    (1,1895)              1.36963559E-02
    1790    (1,1896)              1.36964897E-02
    1791    (1,1897)              1.36966235E-02
    1792    (1,1898)              1.36964897E-02
    1793    (1,1899)              5.48066941E-02
    1794    (1,1900)              5.47893032E-02
    1795    (1,1901)              5.47854238E-02
    1796    (1,1902)              5.47854238E-02
    1797    (1,1903)              5.48244863E-02
    1798    (1,1904)              5.48247538E-02
    1799    (1,1905)              5.47858251E-02
    1800    (1,1906)              5.47862264E-02
    1801    (1,1907)              5.47862264E-02
    1802    (1,1908)              5.47863602E-02
    1823    (1,1931)              5.47856913E-02
    1824    (1,1932)              5.47856913E-02
    1825    (1,1933)              5.47855575E-02
    1826    (1,1934)              5.47851562E-02
    1827    (1,1935)              5.47860926E-02
    1828    (1,1936)              5.48250214E-02
    1829    (1,1937)              5.48286333E-02
    1830    (1,1938)              5.47898384E-02
    1831    (1,1939)              5.47858251E-02
    1832    (1,1940)              5.47856913E-02
    1833    (1,1941)              5.47856913E-02
    1834    (1,1942)              5.47854238E-02
    1835    (1,1943)              5.47854238E-02
    1836    (1,1944)              5.47862264E-02
    1837    (1,1945)              5.48246200E-02
    1838    (1,1946)              5.48244863E-02
    1839    (1,1947)              5.47850224E-02
    1840    (1,1948)              5.47856913E-02
    1841    (1,1949)              5.47860926E-02
    1842    (1,1950)              5.47854238E-02
    1843    (1,1951)              5.47863602E-02
    1844    (1,1952)              5.47897046E-02
    1845    (1,1953)              5.47901059E-02
    1846    (1,1954)              5.48246200E-02
    1847    (1,1955)              5.48250214E-02
    1848    (1,1956)              5.47858251E-02
    1849    (1,1957)              5.47856913E-02
    1850    (1,1958)              5.47852900E-02
    1851    (1,1959)              5.47859589E-02
    1852    (1,1960)              5.47856913E-02
    1853    (1,1961)              5.47863602E-02
    1854    (1,1962)              5.47860926E-02
    1855    (1,1963)              5.47856913E-02
    1856    (1,1964)              5.48244863E-02
    1857    (1,1965)              5.48153895E-02
    1858    (1,1966)              1.36968910E-02
    1859    (1,1967)              1.36964897E-02
    1860    (1,1968)              1.36966235E-02
    1861    (1,1969)              1.36964897E-02
    1862    (1,1970)              1.36963559E-02
    1863    (1,1971)              1.36964897E-02
    1864    (1,1972)              1.36964897E-02
    1865    (1,1973)              1.36983626E-02
    1866    (1,1974)              5.47990689E-02
    1867    (1,1975)              5.47860926E-02
    1868    (1,1976)              5.47852900E-02
    1869    (1,1977)              5.47863602E-02
    1870    (1,1978)              5.47856913E-02
    1871    (1,1979)              5.48243525E-02
    1872    (1,1980)              5.48247538E-02
    1873    (1,1981)              5.47863602E-02
    1874    (1,1982)              5.47854238E-02
    1875    (1,1983)              5.47862264E-02
    1896    (1,2006)              5.47851562E-02
    1897    (1,2007)              5.47858251E-02
    1898    (1,2008)              5.47856913E-02
    1899    (1,2009)              5.47856913E-02
    1900    (1,2010)              5.47894370E-02
    1901    (1,2011)              5.48286333E-02
    1902    (1,2012)              5.48244863E-02
    1903    (1,2013)              5.47855575E-02
    1904    (1,2014)              5.47854238E-02
    1905    (1,2015)              5.47860926E-02
    1906    (1,2016)              5.47862264E-02
    1907    (1,2017)              5.47858251E-02
    1908    (1,2018)              5.47860926E-02
    1909    (1,2019)              5.47854238E-02
    1910    (1,2020)              5.48247538E-02
    1911    (1,2021)              5.48243525E-02
    1912    (1,2022)              5.47856913E-02
    1913    (1,2023)              5.47859589E-02
    1914    (1,2024)              5.47856913E-02
    1915    (1,2025)              5.47903735E-02
    1916    (1,2026)              5.47894370E-02
    1917    (1,2027)              5.47858251E-02
    1918    (1,2028)              5.47862264E-02
    1919    (1,2029)              5.48246200E-02
    1920    (1,2030)              5.48250214E-02
    1921    (1,2031)              5.47856913E-02
    1922    (1,2032)              5.47855575E-02
    1923    (1,2033)              5.47855575E-02
    1924    (1,2034)              5.47862264E-02
    1925    (1,2035)              5.47854238E-02
    1926    (1,2036)              5.47854238E-02
    1927    (1,2037)              5.47856913E-02
    1928    (1,2038)              5.47858251E-02
    1929    (1,2039)              5.48243525E-02
    1930    (1,2040)              5.48092358E-02
    1931    (1,2041)              1.36986301E-02
    1932    (1,2042)              1.36960884E-02
    1933    (1,2043)              1.36968910E-02
    1934    (1,2044)              1.36966235E-02
    1935    (1,2045)              5.47959920E-02
    1936    (1,2046)              5.47862264E-02
    1937    (1,2047)              5.47859589E-02
    1938    (1,2048)              5.47858251E-02
    1939    (1,2049)              5.47856913E-02
    1940    (1,2050)              5.47863602E-02
    1941    (1,2051)              5.48244863E-02
    1942    (1,2052)              5.48242187E-02
    1943    (1,2053)              5.47858251E-02
    1965    (1,2077)              5.47862264E-02
    1966    (1,2078)              5.47854238E-02
    1967    (1,2079)              5.47895708E-02
    1968    (1,2080)              5.47890357E-02
    1969    (1,2081)              5.47860926E-02
    1970    (1,2082)              5.48246200E-02
    1971    (1,2083)              5.48246200E-02
    1972    (1,2084)              5.47854238E-02
    1973    (1,2085)              5.47855575E-02
    1974    (1,2086)              5.47859589E-02
    1975    (1,2087)              5.47855575E-02
    1976    (1,2088)              5.47859589E-02
    1977    (1,2089)              5.47856913E-02
    1978    (1,2090)              5.47860926E-02
    1979    (1,2091)              5.48243525E-02
    1980    (1,2092)              5.48240849E-02
    1981    (1,2093)              5.47852900E-02
    1982    (1,2094)              5.47901059E-02
    1983    (1,2095)              5.47898384E-02
    1984    (1,2096)              5.47854238E-02
    1985    (1,2097)              5.47862264E-02
    1986    (1,2098)              5.47856913E-02
    1987    (1,2099)              5.47859589E-02
    1988    (1,2100)              5.48247538E-02
    1989    (1,2101)              5.48251551E-02
    1990    (1,2102)              5.47851562E-02
    1991    (1,2103)              5.47854238E-02
    1992    (1,2104)              5.47858251E-02
    1993    (1,2105)              5.47856913E-02
    1994    (1,2106)              5.47852900E-02
    1995    (1,2107)              5.47860926E-02
    1996    (1,2108)              5.47854238E-02
    1997    (1,2109)              5.47895708E-02
    1998    (1,2110)              5.48271618E-02
    1999    (1,2111)              1.36963559E-02
    2000    (1,2112)              1.36970248E-02
    2001    (1,2113)              1.37160210E-02
    2002    (1,2114)              1.36963559E-02
    2003    (1,2115)              5.47965271E-02
    2004    (1,2116)              5.47862264E-02
    2005    (1,2117)              5.47863602E-02
    2006    (1,2118)              5.47858251E-02
    2007    (1,2119)              5.47860926E-02
    2008    (1,2120)              5.47859589E-02
    2009    (1,2121)              5.47851562E-02
    2010    (1,2122)              5.48244863E-02
    2011    (1,2123)              5.48238174E-02
    2033    (1,2147)              5.47897046E-02
    2034    (1,2148)              5.47897046E-02
    2035    (1,2149)              5.47855575E-02
    2036    (1,2150)              5.47860926E-02
    2037    (1,2151)              5.47854238E-02
    2038    (1,2152)              5.48239512E-02
    2039    (1,2153)              5.48247538E-02
    2040    (1,2154)              5.47855575E-02
    2041    (1,2155)              5.47855575E-02
    2042    (1,2156)              5.47854238E-02
    2043    (1,2157)              5.47856913E-02
    2044    (1,2158)              5.47856913E-02
    2045    (1,2159)              5.47855575E-02
    2046    (1,2160)              5.47860926E-02
    2047    (1,2161)              5.48242187E-02
    2048    (1,2162)              5.48284995E-02
    2049    (1,2163)              5.47897046E-02
    2050    (1,2164)              5.47858251E-02
    2051    (1,2165)              5.47862264E-02
    2052    (1,2166)              5.47859589E-02
    2053    (1,2167)              5.47858251E-02
    2054    (1,2168)              5.47863602E-02
    2055    (1,2169)              5.47860926E-02
    2056    (1,2170)              5.48247538E-02
    2057    (1,2171)              5.48242187E-02
    2058    (1,2172)              5.47852900E-02
    2059    (1,2173)              5.47858251E-02
    2060    (1,2174)              5.47856913E-02
    2061    (1,2175)              5.47854238E-02
    2062    (1,2176)              5.47852900E-02
    2063    (1,2177)              5.47893032E-02
    2064    (1,2178)              5.47898384E-02
    2065    (1,2179)              5.47943867E-02
    2066    (1,2180)              1.36964897E-02
    2067    (1,2181)              1.37160210E-02
    2068    (1,2182)              1.36962222E-02
    2069    (1,2183)              1.36964897E-02
    2070    (1,2184)              5.48250214E-02
    2071    (1,2185)              5.47856913E-02
    2072    (1,2186)              5.47858251E-02
    2073    (1,2187)              5.47854238E-02
    2074    (1,2188)              5.47860926E-02
    2075    (1,2189)              5.47862264E-02
    2076    (1,2190)              5.47858251E-02
    2077    (1,2191)              5.47860926E-02
    2078    (1,2192)              5.48240849E-02
    2079    (1,2193)              5.48252889E-02
    2080    (1,2194)              5.47895708E-02
    2100    (1,2216)              5.47862264E-02
    2101    (1,2217)              5.47858251E-02
    2102    (1,2218)              5.47855575E-02
    2103    (1,2219)              5.47862264E-02
    2104    (1,2220)              5.47859589E-02
    2105    (1,2221)              5.48240849E-02
    2106    (1,2222)              5.48246200E-02
    2107    (1,2223)              5.47856913E-02
    2108    (1,2224)              5.47859589E-02
    2109    (1,2225)              5.47860926E-02
    2110    (1,2226)              5.47855575E-02
    2111    (1,2227)              5.47859589E-02
    2112    (1,2228)              5.47859589E-02
    2113    (1,2229)              5.47895708E-02
    2114    (1,2230)              5.48280982E-02
    2115    (1,2231)              5.48247538E-02
    2116    (1,2232)              5.47859589E-02
    2117    (1,2233)              5.47862264E-02
    2118    (1,2234)              5.47859589E-02
    2119    (1,2235)              5.47855575E-02
    2120    (1,2236)              5.47864940E-02
    2121    (1,2237)              5.47860926E-02
    2122    (1,2238)              5.47856913E-02
    2123    (1,2239)              5.48248876E-02
    2124    (1,2240)              5.48246200E-02
    2125    (1,2241)              5.47860926E-02
    2126    (1,2242)              5.47859589E-02
    2127    (1,2243)              5.47863602E-02
    2128    (1,2244)              5.47902397E-02
    2129    (1,2245)              5.47895708E-02
    2130    (1,2246)              5.47859589E-02
    2131    (1,2247)              5.47943867E-02
    2132    (1,2248)              1.36960884E-02
    2133    (1,2249)              1.36963559E-02
    2134    (1,2250)              1.36970248E-02
    2135    (1,2251)              1.36963559E-02
    2136    (1,2252)              5.48155233E-02
    2137    (1,2253)              5.48240849E-02
    2138    (1,2254)              5.47858251E-02
    2139    (1,2255)              5.47856913E-02
    2140    (1,2256)              5.47860926E-02
    2141    (1,2257)              5.47860926E-02
    2142    (1,2258)              5.47863602E-02
    2143    (1,2259)              5.47864940E-02
    2144    (1,2260)              5.47859589E-02
    2145    (1,2261)              5.48280982E-02
    2146    (1,2262)              5.48282320E-02
    2147    (1,2263)              5.47859589E-02
    2193    (1,2311)              5.47856913E-02
    2194    (1,2312)              5.47854238E-02
    2195    (1,2313)              5.47856913E-02
    2196    (1,2314)              5.47852900E-02
    2197    (1,2315)              5.47855575E-02
    2198    (1,2316)              5.48242187E-02
    2199    (1,2317)              5.48239512E-02
    2200    (1,2318)              5.47855575E-02
    2201    (1,2319)              5.47855575E-02
    2202    (1,2320)              5.47851562E-02
    2203    (1,2321)              5.47856913E-02
    2204    (1,2322)              5.47902397E-02
    2205    (1,2323)              5.47898384E-02
    2206    (1,2324)              5.47862264E-02
    2207    (1,2325)              5.48246200E-02
    2208    (1,2326)              5.48247538E-02
    2209    (1,2327)              5.47863602E-02
    2210    (1,2328)              5.47859589E-02
    2211    (1,2329)              5.47860926E-02
    2212    (1,2330)              5.47859589E-02
    2213    (1,2331)              5.47852900E-02
    2214    (1,2332)              5.47859589E-02
    2215    (1,2333)              5.47854238E-02
    2216    (1,2334)              5.48242187E-02
    2217    (1,2335)              5.48244863E-02
    2218    (1,2336)              5.47859589E-02
    2219    (1,2337)              5.47894370E-02
    2220    (1,2338)              5.47891695E-02
    2221    (1,2339)              5.47858251E-02
    2222    (1,2340)              5.47858251E-02
    2223    (1,2341)              5.47831496E-02
    2224    (1,2342)              1.36967573E-02
    2225    (1,2343)              1.36959546E-02
    2226    (1,2344)              1.36967573E-02
    2227    (1,2345)              1.36962222E-02
    2228    (1,2346)              5.47771297E-02
    2229    (1,2347)              5.48244863E-02
    2230    (1,2348)              5.48243525E-02
    2231    (1,2349)              5.47856913E-02
    2232    (1,2350)              5.47858251E-02
    2233    (1,2351)              5.47862264E-02
    2234    (1,2352)              5.47856913E-02
    2235    (1,2353)              5.47862264E-02
    2236    (1,2354)              5.47898384E-02
    2237    (1,2355)              5.47895708E-02
    2238    (1,2356)              5.48243525E-02
    2239    (1,2357)              5.48242187E-02
    2240    (1,2358)              5.47945205E-02
    2285    (1,2405)              5.47854238E-02
    2286    (1,2406)              5.47858251E-02
    2287    (1,2407)              5.47859589E-02
    2288    (1,2408)              5.47859589E-02
    2289    (1,2409)              5.47856913E-02
    2290    (1,2410)              5.48247538E-02
    2291    (1,2411)              5.48236836E-02
    2292    (1,2412)              5.47856913E-02
    2293    (1,2413)              5.47854238E-02
    2294    (1,2414)              5.47891695E-02
    2295    (1,2415)              5.47898384E-02
    2296    (1,2416)              5.47855575E-02
    2297    (1,2417)              5.47859589E-02
    2298    (1,2418)              5.47862264E-02
    2299    (1,2419)              5.48247538E-02
    2300    (1,2420)              5.48240849E-02
    2301    (1,2421)              5.47854238E-02
    2302    (1,2422)              5.47859589E-02
    2303    (1,2423)              5.47862264E-02
    2310    (1,2430)              5.47895708E-02
    2311    (1,2431)              5.47852900E-02
    2312    (1,2432)              5.47859589E-02
    2313    (1,2433)              5.47751230E-02
    2314    (1,2434)              1.37158872E-02
    2315    (1,2435)              1.36959546E-02
    2316    (1,2436)              1.36963559E-02
    2317    (1,2437)              1.37153521E-02
    2318    (1,2438)              1.36968910E-02
    2319    (1,2439)              1.36959546E-02
    2320    (1,2440)              1.36967573E-02
    2321    (1,2441)              1.36964897E-02
    2322    (1,2442)              5.47775310E-02
    2323    (1,2443)              5.47854238E-02
    2324    (1,2444)              5.48248876E-02
    2325    (1,2445)              5.48250214E-02
    2326    (1,2446)              5.47858251E-02
    2327    (1,2447)              5.47856913E-02
    2328    (1,2448)              5.47856913E-02
    2329    (1,2449)              5.47895708E-02
    2330    (1,2450)              5.47895708E-02
    2331    (1,2451)              5.47859589E-02
    2332    (1,2452)              5.47860926E-02
    2333    (1,2453)              5.48121789E-02
    2334    (1,2454)              1.36963559E-02
    2335    (1,2455)              1.36962222E-02
    2336    (1,2456)              1.37160210E-02
    2337    (1,2457)              1.36962222E-02
    2338    (1,2458)              1.36968910E-02
    2339    (1,2459)              1.36962222E-02
    2340    (1,2460)              1.36960884E-02
    2341    (1,2461)              1.36970248E-02
    2367    (1,2489)              5.47858251E-02
    2368    (1,2490)              5.47856913E-02
    2369    (1,2491)              5.47855575E-02
    2370    (1,2492)              5.47859589E-02
    2371    (1,2493)              5.47858251E-02
    2372    (1,2494)              5.48243525E-02
    2373    (1,2495)              5.48238174E-02
    2374    (1,2496)              5.47897046E-02
    2375    (1,2497)              5.47893032E-02
    2376    (1,2498)              5.47859589E-02
    2377    (1,2499)              5.47855575E-02
    2378    (1,2500)              5.47859589E-02
    2379    (1,2501)              5.47856913E-02
    2380    (1,2502)              5.47859589E-02
    2381    (1,2503)              5.48248876E-02
    2382    (1,2504)              5.48248876E-02
    2390    (1,2512)              5.48284995E-02
    2391    (1,2513)              5.48244863E-02
    2392    (1,2514)              5.47859589E-02
    2393    (1,2515)              5.47859589E-02
    2394    (1,2516)              5.47753906E-02
    2395    (1,2517)              1.36968910E-02
    2396    (1,2518)              1.36970248E-02
    2397    (1,2519)              1.36963559E-02
    2398    (1,2520)              1.36963559E-02
    2399    (1,2521)              5.48169948E-02
    2400    (1,2522)              5.47859589E-02
    2401    (1,2523)              5.47856913E-02
    2402    (1,2524)              5.47855575E-02
    2403    (1,2525)              5.48250214E-02
    2404    (1,2526)              5.48243525E-02
    2405    (1,2527)              5.47859589E-02
    2406    (1,2528)              5.47894370E-02
    2407    (1,2529)              5.47899721E-02
    2408    (1,2530)              5.47860926E-02
    2409    (1,2531)              5.47858251E-02
    2410    (1,2532)              5.47951894E-02
    2411    (1,2533)              1.36971586E-02
    2412    (1,2534)              1.36960884E-02
    2413    (1,2535)              1.36964897E-02
    2414    (1,2536)              1.36967573E-02
    2415    (1,2537)              1.36962222E-02
    2416    (1,2538)              1.37157534E-02
    2417    (1,2539)              1.36967573E-02
    2418    (1,2540)              1.36959546E-02
    2419    (1,2541)              5.48167273E-02
    2442    (1,2567)              5.47854238E-02
    2443    (1,2568)              5.47855575E-02
    2444    (1,2569)              5.47856913E-02
    2445    (1,2570)              5.47860926E-02
    2446    (1,2571)              5.47859589E-02
    2447    (1,2572)              5.48287671E-02
    2448    (1,2573)              5.48284995E-02
    2449    (1,2574)              5.47854238E-02
    2450    (1,2575)              5.47854238E-02
    2451    (1,2576)              5.47855575E-02
    2452    (1,2577)              5.47856913E-02
    2453    (1,2578)              5.47852900E-02
    2454    (1,2579)              5.47858251E-02
    2455    (1,2580)              5.47856913E-02
    2456    (1,2581)              5.48244863E-02
    2465    (1,2590)              5.48244863E-02
    2466    (1,2591)              5.48244863E-02
    2467    (1,2592)              5.47856913E-02
    2468    (1,2593)              5.47744541E-02
    2469    (1,2594)              1.36964897E-02
    2470    (1,2595)              1.36984963E-02
    2471    (1,2596)              1.36983626E-02
    2472    (1,2597)              1.36968910E-02
    2473    (1,2598)              1.36964897E-02
    2474    (1,2599)              1.36960884E-02
    2475    (1,2600)              1.36962222E-02
    2476    (1,2601)              1.36959546E-02
    2477    (1,2602)              5.47950556E-02
    2478    (1,2603)              5.47856913E-02
    2479    (1,2604)              5.47855575E-02
    2480    (1,2605)              5.47856913E-02
    2481    (1,2606)              5.48244863E-02
    2482    (1,2607)              5.48282320E-02
    2483    (1,2608)              5.47890357E-02
    2484    (1,2609)              5.47855575E-02
    2485    (1,2610)              5.47862264E-02
    2486    (1,2611)              5.47858251E-02
    2487    (1,2612)              5.47832833E-02
    2488    (1,2613)              1.36966235E-02
    2489    (1,2614)              1.36964897E-02
    2490    (1,2615)              1.36967573E-02
    2491    (1,2616)              1.36960884E-02
    2492    (1,2617)              5.47883668E-02
    2493    (1,2618)              5.48254227E-02
    2510    (1,2637)              5.47858251E-02
    2511    (1,2638)              5.47855575E-02
    2512    (1,2639)              5.47855575E-02
    2513    (1,2640)              5.47889019E-02
    2514    (1,2641)              5.47898384E-02
    2515    (1,2642)              5.48236836E-02
    2516    (1,2643)              5.48240849E-02
    2517    (1,2644)              5.47852900E-02
    2518    (1,2645)              5.47855575E-02
    2519    (1,2646)              5.47858251E-02
    2520    (1,2647)              5.47858251E-02
    2521    (1,2648)              5.47855575E-02
    2522    (1,2649)              5.47856913E-02
    2533    (1,2660)              5.48236836E-02
    2534    (1,2661)              5.48243525E-02
    2535    (1,2662)              5.47850224E-02
    2536    (1,2663)              5.47661601E-02
    2537    (1,2664)              1.36964897E-02
    2538    (1,2665)              1.36966235E-02
    2539    (1,2666)              1.36967573E-02
    2540    (1,2667)              1.36962222E-02
    2541    (1,2668)              5.48041523E-02
    2542    (1,2669)              5.47850224E-02
    2543    (1,2670)              5.47848887E-02
    2544    (1,2671)              5.47856913E-02
    2545    (1,2672)              5.47899721E-02
    2546    (1,2673)              5.48286333E-02
    2547    (1,2674)              5.48224796E-02
    2548    (1,2675)              5.47951894E-02
    2549    (1,2676)              5.47949218E-02
    2550    (1,2677)              5.47834171E-02
    2551    (1,2678)              1.37161547E-02
    2552    (1,2679)              1.36967573E-02
    2553    (1,2680)              1.36964897E-02
    2554    (1,2681)              1.37152183E-02
    2555    (1,2682)              1.36970248E-02
    2556    (1,2683)              1.36964897E-02
    2557    (1,2684)              1.36959546E-02
    2558    (1,2685)              1.36966235E-02
    2559    (1,2686)              5.47771297E-02
    2560    (1,2687)              5.47862264E-02
    2577    (1,2706)              5.47852900E-02
    2578    (1,2707)              5.47893032E-02
    2579    (1,2708)              5.47887681E-02
    2580    (1,2709)              5.47860926E-02
    2581    (1,2710)              5.47852900E-02
    2582    (1,2711)              5.48242187E-02
    2583    (1,2712)              5.48242187E-02
    2584    (1,2713)              5.47854238E-02
    2585    (1,2714)              5.47855575E-02
    2586    (1,2715)              5.47859589E-02
    2587    (1,2716)              5.47856913E-02
    2601    (1,2730)              5.48243525E-02
    2602    (1,2731)              5.47771297E-02
    2603    (1,2732)              1.36964897E-02
    2604    (1,2733)              1.36964897E-02
    2605    (1,2734)              1.36964897E-02
    2606    (1,2735)              1.36959546E-02
    2607    (1,2736)              1.36960884E-02
    2608    (1,2737)              1.36968910E-02
    2609    (1,2738)              1.36958208E-02
    2610    (1,2739)              1.36962222E-02
    2611    (1,2740)              5.48056239E-02
    2612    (1,2741)              5.47854238E-02
    2613    (1,2742)              5.47893032E-02
    2614    (1,2743)              5.47794038E-02
    2615    (1,2744)              5.47835509E-02
    2616    (1,2745)              1.36966235E-02
    2617    (1,2746)              1.37158872E-02
    2618    (1,2747)              1.36966235E-02
    2619    (1,2748)              1.36967573E-02
    2620    (1,2749)              1.36958208E-02
    2621    (1,2750)              1.36959546E-02
    2622    (1,2751)              1.37154859E-02
    2623    (1,2752)              1.36956871E-02
    2624    (1,2753)              1.36968910E-02
    2625    (1,2754)              1.36963559E-02
    2626    (1,2755)              1.36960884E-02
    2627    (1,2756)              1.36968910E-02
    2628    (1,2757)              1.36963559E-02
    2629    (1,2758)              1.36968910E-02
    2630    (1,2759)              1.36962222E-02
    2631    (1,2760)              1.36958208E-02
    2632    (1,2761)              1.36962222E-02
    2633    (1,2762)              1.36959546E-02
    2634    (1,2763)              1.36963559E-02
    2635    (1,2764)              1.36956871E-02
    2636    (1,2765)              5.48069616E-02
    2637    (1,2766)              5.47854238E-02
    2655    (1,2786)              5.47895708E-02
    2656    (1,2787)              5.47855575E-02
    2657    (1,2788)              5.47862264E-02
    2658    (1,2789)              5.47856913E-02
    2659    (1,2790)              5.47856913E-02
    2660    (1,2791)              5.48246200E-02
    2661    (1,2792)              5.48248876E-02
    2662    (1,2793)              5.47855575E-02
    2663    (1,2794)              5.47864940E-02
    2679    (1,2810)              5.48244863E-02
    2680    (1,2811)              5.47668289E-02
    2681    (1,2812)              1.36968910E-02
    2682    (1,2813)              1.36970248E-02
    2683    (1,2814)              1.36958208E-02
    2684    (1,2815)              1.36966235E-02
    2685    (1,2816)              1.36963559E-02
    2686    (1,2817)              1.36968910E-02
    2687    (1,2818)              1.36959546E-02
    2688    (1,2819)              1.36960884E-02
    2689    (1,2820)              5.48077643E-02
    2690    (1,2821)              5.48069616E-02
    2691    (1,2822)              1.36964897E-02
    2692    (1,2823)              1.36966235E-02
    2693    (1,2824)              1.36958208E-02
    2694    (1,2825)              1.36959546E-02
    2695    (1,2826)              1.36964897E-02
    2696    (1,2827)              1.36967573E-02
    2697    (1,2828)              1.36963559E-02
    2698    (1,2829)              1.36958208E-02
    2699    (1,2830)              1.36967573E-02
    2700    (1,2831)              1.36970248E-02
    2701    (1,2832)              1.36962222E-02
    2702    (1,2833)              1.36963559E-02
    2703    (1,2834)              5.48164597E-02
    2704    (1,2835)              5.48163259E-02
    2724    (1,2857)              5.47858251E-02
    2725    (1,2858)              5.47859589E-02
    2726    (1,2859)              5.47858251E-02
    2727    (1,2860)              5.47855575E-02
    2728    (1,2861)              5.47858251E-02
    2729    (1,2862)              5.48247538E-02
    2730    (1,2863)              5.48247538E-02
    2748    (1,2881)              5.48247538E-02
    2749    (1,2882)              5.47656250E-02
    2750    (1,2883)              1.36963559E-02
    2751    (1,2884)              1.36963559E-02
    2752    (1,2885)              1.36962222E-02
    2753    (1,2886)              1.36987639E-02
    2755    (1,2888)              1.36966235E-02
    2757    (1,2890)              1.36959546E-02
    2758    (1,2891)              1.36963559E-02
    2759    (1,2892)              1.36966235E-02
    2760    (1,2893)              1.36960884E-02
    2761    (1,2894)              1.36958208E-02
    2762    (1,2895)              1.37164223E-02
    2763    (1,2896)              1.36968910E-02
    2764    (1,2897)              1.36962222E-02
    2765    (1,2898)              1.37156196E-02
    2787    (1,2922)              5.47864940E-02
    2788    (1,2923)              5.47855575E-02
    2789    (1,2924)              5.47851562E-02
    2790    (1,2925)              5.47854238E-02
    2791    (1,2926)              5.47854238E-02
    2835    (1,2972)              5.47858251E-02
    2836    (1,2973)              5.47856913E-02
    2837    (1,2974)              5.47863602E-02
    2878    (1,3019)              5.47862264E-02
    2879    (1,3020)              5.47856913E-02
 -----------------------------------------------



 UBDSV06 SAVING              SFR IN MODEL EXPERIMENTAL     PACKAGE EXPERIMENTAL    CONNECTED TO MODEL EXPERIMENTAL     PACKAGE SFR              ON UNIT   1020 AT TIME STEP     48, STRESS PERIOD      2

 SFR PACKAGE (SFR) FLOW RATES   PERIOD      2   STEP       48
 -----------------------------------------------
   NUMBER   CELLID                    RATE      
 -----------------------------------------------
     1      (2,2565)              0.0000000     
     2      (2,2563)              0.0000000     
     3      (2,2561)              0.0000000     
     4      (2,2560)              0.0000000     
     5      (2,2557)              0.0000000     
     6      (2,2485)              0.0000000     
     7      (2,2484)              0.0000000     
     8      (2,2481)              0.0000000     
     9      (2,2479)              0.0000000     
     10     (2,2478)              0.0000000     
     11     (2,2399)              0.0000000     
     12     (2,2396)              0.0000000     
     13     (2,2394)              0.0000000     
     14     (2,2393)              0.0000000     
     15     (2,2304)              0.0000000     
     16     (2,2301)              0.0000000     
     17     (2,2300)              0.0000000     
     18     (2,2389)              0.0000000     
     19     (2,2386)              0.0000000     
     20     (2,2385)              0.0000000     
     21     (2,2296)              0.0000000     
     22     (2,2293)              0.0000000     
     23     (2,2292)              0.0000000     
     24     (2,2289)              0.0000000     
     25     (2,2288)              0.0000000     
     26     (2,2286)              0.0000000     
     27     (2,2283)              0.0000000     
     28     (2,2282)              0.0000000     
     29     (2,2279)              0.0000000     
     30     (2,2278)              0.0000000     
     31     (2,2275)              0.0000000     
     32     (2,2277)              0.0000000     
     33     (2,2276)              0.0000000     
     34     (2,2273)              0.0000000     
     35     (2,2272)              0.0000000     
     36     (2,2376)              0.0000000     
     37     (2,2373)              0.0000000     
     38     (2,2372)              0.0000000     
     39     (2,2369)              0.0000000     
     40     (2,2368)              0.0000000     
     41     (2,2370)              0.0000000     
     42     (2,2367)              0.0000000     
     43     (2,2366)              0.0000000     
     44     (2,2363)              0.0000000     
     45     (2,2362)              0.0000000     
     46     (2,2462)              0.0000000     
     47     (1,2459)              0.0000000     
     48     (1,2458)              0.0000000     
     49     (1,2460)              0.0000000     
     50     (1,2457)              0.0000000     
     51     (1,2538)              0.0000000     
     52     (1,2537)              0.0000000     
     53     (1,2539)              0.0000000     
     54     (1,2536)              0.0000000     
     55     (1,2614)              0.0000000     
     56     (1,2613)              0.0000000     
     57     (1,2615)              0.0000000     
     58     (1,2682)              0.0000000     
     59     (1,2684)              0.0000000     
     60     (1,2681)              0.0000000     
     61     (1,2762)              0.0000000     
     62     (1,2761)              0.0000000     
     63     (1,2763)              0.0000000     
     64     (1,2760)              0.0000000     
     65     (1,2759)              0.0000000     
     66     (1,2756)              0.0000000     
     67     (1,2755)              0.0000000     
     68     (1,2752)              0.0000000     
     69     (1,2751)              0.0000000     
     70     (1,2748)              0.0000000     
     71     (1,2831)              0.0000000     
     72     (1,2830)              0.0000000     
     73     (1,2827)              0.0000000     
     74     (1,2829)              0.0000000     
     75     (1,2828)              0.0000000     
     76     (1,2825)              0.0000000     
     77     (1,2824)              0.0000000     
     78     (1,2895)              0.0000000     
     79     (1,2892)              0.0000000     
     80     (1,2891)              0.0000000     
     81     (1,2888)              0.0000000     
     82     (2,2887)              0.0000000     
     83     (1,2884)              0.0000000     
     84     (1,2819)              0.0000000     
     85     (1,2818)              0.0000000     
     86     (1,2816)              0.0000000     
     87     (1,2813)              0.0000000     
     88     (1,2739)              0.0000000     
     89     (1,2738)              0.0000000     
     90     (1,2736)              0.0000000     
     91     (1,2733)              0.0000000     
     92     (1,2667)              0.0000000     
     93     (1,2666)              0.0000000     
     94     (1,2664)              0.0000000     
     95     (1,2600)              0.0000000     
     96     (1,2597)              0.0000000     
     97     (1,2595)              0.0000000     
     98     (1,2520)              0.0000000     
     99     (1,2519)              0.0000000     
    100     (1,2517)              0.0000000     
    101     (1,2436)              0.0000000     
    102     (1,2434)              0.0000000     
    103     (1,2435)              0.0000000     
    104     (1,2438)              0.0000000     
    105     (1,2344)              0.0000000     
    106     (1,2342)              0.0000000     
    107     (1,2343)              0.0000000     
    108     (1,2251)              0.0000000     
    109     (1,2249)              0.0000000     
    110     (1,2183)              0.0000000     
    111     (1,2181)              0.0000000     
    112     (1,2114)              0.0000000     
    113     (1,2112)              0.0000000     
    114     (1,2044)              0.0000000     
    115     (1,2043)              0.0000000     
    116     (1,2041)              0.0000000     
    117     (1,1972)              0.0000000     
    118     (1,1969)              0.0000000     
    119     (1,1967)              0.0000000     
    120     (1,1966)              0.0000000     
    121     (1,1893)              0.0000000     
    122     (1,1894)              0.0000000     
    123     (1,1892)              0.0000000     
    124     (1,1895)              0.0000000     
    125     (1,1896)              0.0000000     
    126     (1,1819)              0.0000000     
    127     (1,1822)              0.0000000     
    128     (1,1820)              0.0000000     
    129     (1,1745)              0.0000000     
    130     (1,1742)              0.0000000     
    131     (1,1741)              0.0000000     
    132     (1,1738)              0.0000000     
    133     (1,1737)              0.0000000     
    134     (1,1735)              0.0000000     
    135     (1,1732)              0.0000000     
    136     (1,1653)              0.0000000     
    137     (1,1651)              0.0000000     
    138     (1,1654)              0.0000000     
    139     (1,1655)              0.0000000     
    140     (1,1658)              0.0000000     
    141     (1,1548)              0.0000000     
    142     (1,1546)              0.0000000     
    143     (1,1543)              0.0000000     
    144     (1,1453)              0.0000000     
    145     (1,1452)              0.0000000     
    146     (1,1449)              0.0000000     
    147     (1,1448)              0.0000000     
    148     (1,1538)              0.0000000     
    149     (1,1535)              0.0000000     
    150     (1,1537)              0.0000000     
    151     (1,1647)              0.0000000     
    152     (1,1649)              0.0000000     
    153     (1,1648)              0.0000000     
    154     (1,1645)              0.0000000     
    155     (1,1644)              0.0000000     
    156     (1,1642)              0.0000000     
    157     (1,1639)              0.0000000     
    158     (1,1638)              0.0000000     
    159     (1,1640)              0.0000000     
    160     (1,1637)              0.0000000     
    161     (1,1636)              0.0000000     
    162     (1,1633)              0.0000000     
    163     (1,1632)              0.0000000     
    164     (1,1629)              0.0000000     
    165     (1,1628)              0.0000000     
    166     (1,1625)              0.0000000     
    167     (1,1624)              0.0000000     
    168     (1,1621)              0.0000000     
    169     (1,1620)              0.0000000     
    170     (1,1617)              0.0000000     
    171     (1,1615)              0.0000000     
    172     (1,1614)              0.0000000     
    173     (1,1611)              0.0000000     
    174     (1,1525)              0.0000000     
    175     (1,1524)              0.0000000     
    176     (1,1521)              0.0000000     
    177     (1,1519)              0.0000000     
    178     (1,1518)              0.0000000     
    179     (1,1515)              0.0000000     
    180     (1,1431)              0.0000000     
    181     (1,1429)              0.0000000     
    182     (1,1432)              0.0000000     
    183     (1,1353)              0.0000000     
    184     (1,1351)              0.0000000     
    185     (1,1274)              0.0000000     
    186     (1,1272)              0.0000000     
    187     (1,1194)              0.0000000     
    188     (1,1192)             -38.701009     
    189     (1,1189)             -0.82611860    
    190     (1,1111)             -61.702568     
    191     (1,1109)             -40.911880     
    192     (1,1108)             -14.630883     
    193     (1,1030)             -32.170999     
    194     (1,1028)             -33.242783     
    195     (1,950)              -9.6948308     
    196     (1,947)              -61.132187     
    197     (1,945)              -48.920462     
    198     (1,944)              -44.668209     
    199     (1,866)              -27.056618     
    200     (1,863)              -33.174347     
    201     (1,861)              -34.804756     
    202     (1,860)              -17.334373     
    203     (1,782)              -34.538172     
    204     (1,779)              -7.8618178     
    205     (1,777)              -38.355473     
    206     (1,700)              -0.76218011    
    207     (1,699)              -23.967072     
    208     (1,697)              -6.7274905     
    209     (1,694)              -1.5331119     
    210     (1,618)              -30.458868     
    211     (1,617)              -17.409932     
    212     (1,615)              -26.302530     
    213     (1,612)              -0.87830731    
    214     (1,537)               7.2408730     
    215     (1,535)              -74.108255     
    216     (1,534)              -79.751204     
    217     (1,531)              -1.2614481     
    218     (1,457)              -60.470252     
    219     (1,455)              -59.684472     
    220     (1,382)              -34.554992     
    221     (1,381)              -48.580021     
    222     (1,378)              -32.678392     
    223     (1,377)              -26.175096     
    224     (1,375)              -7.9815226     
    225     (1,372)              -26.286108     
    226     (1,371)              -5.3114181     
    227     (1,299)              -16.498257     
    228     (1,296)              -7.3069663     
    229     (1,294)              -2.3808690     
    230     (1,293)              -4.4684505     
    231     (1,290)               9.7092825     
    232     (1,289)               21.399484     
    233     (1,286)               6.4637668     
    234     (1,250)               38.521651     
    235     (1,249)               81.462407     
    236     (1,246)              -12.995756     
    237     (1,244)              -37.254880     
    238     (1,243)              -138.54827     
    239     (1,209)              -68.667484     
    240     (1,206)              -96.772028     
    241     (1,204)              -53.868689     
    242     (1,203)              -80.141271     
    243     (1,171)              -46.342080     
    244     (1,168)              -83.797353     
    245     (1,166)              -7.2053386     
    246     (1,165)              -87.947116     
    247     (1,135)              -6.8969691     
    248     (1,132)              -82.248530     
    249     (1,130)              -6.6476441     
    250     (1,129)              -78.459064     
    251     (1,101)              -6.4317627     
    252     (1,98)               -75.722295     
    253     (1,96)               -6.2876874     
    254     (1,95)               -73.189554     
    255     (1,69)               -6.1303290     
    256     (1,66)               -70.323537     
    257     (1,65)               -3.5569914     
    258     (1,63)               -67.004202     
    259     (1,60)               -16.506475     
    260     (1,36)               -122.53329     
    261     (1,35)               -51.837696     
    262     (1,33)               -100.00942     
    263     (1,30)               -92.813742     
    264     (1,8)                -110.92086     
    265     (1,7)                -131.79533     
    266     (1,5)                -23.163130     
 -----------------------------------------------



 UBDSV06 SAVING     FLOW-JA-FACE IN MODEL EXPERIMENTAL     PACKAGE SFR             CONNECTED TO MODEL EXPERIMENTAL     PACKAGE SFR              ON UNIT   1016 AT TIME STEP     48, STRESS PERIOD      2
 UBDSV06 SAVING              GWF IN MODEL EXPERIMENTAL     PACKAGE SFR             CONNECTED TO MODEL EXPERIMENTAL     PACKAGE EXPERIMENTAL     ON UNIT   1016 AT TIME STEP     48, STRESS PERIOD      2
 UBDSV06 SAVING         RAINFALL IN MODEL EXPERIMENTAL     PACKAGE SFR             CONNECTED TO MODEL EXPERIMENTAL     PACKAGE SFR              ON UNIT   1016 AT TIME STEP     48, STRESS PERIOD      2
 UBDSV06 SAVING      EVAPORATION IN MODEL EXPERIMENTAL     PACKAGE SFR             CONNECTED TO MODEL EXPERIMENTAL     PACKAGE SFR              ON UNIT   1016 AT TIME STEP     48, STRESS PERIOD      2
 UBDSV06 SAVING           RUNOFF IN MODEL EXPERIMENTAL     PACKAGE SFR             CONNECTED TO MODEL EXPERIMENTAL     PACKAGE SFR              ON UNIT   1016 AT TIME STEP     48, STRESS PERIOD      2
 UBDSV06 SAVING       EXT-INFLOW IN MODEL EXPERIMENTAL     PACKAGE SFR             CONNECTED TO MODEL EXPERIMENTAL     PACKAGE SFR              ON UNIT   1016 AT TIME STEP     48, STRESS PERIOD      2
 UBDSV06 SAVING      EXT-OUTFLOW IN MODEL EXPERIMENTAL     PACKAGE SFR             CONNECTED TO MODEL EXPERIMENTAL     PACKAGE SFR              ON UNIT   1016 AT TIME STEP     48, STRESS PERIOD      2
 UBDSV06 SAVING          STORAGE IN MODEL EXPERIMENTAL     PACKAGE SFR             CONNECTED TO MODEL EXPERIMENTAL     PACKAGE SFR              ON UNIT   1016 AT TIME STEP     48, STRESS PERIOD      2
1
  HEAD IN LAYER   1 AT END OF TIME STEP  48 IN STRESS PERIOD    2
  ---------------------------------------------------------------------------

                1               2               3               4               5               6               7               8               9              10
               11              12              13              14              15              16              17              18              19              20
               21              22              23              24              25              26              27              28              29              30
               31              32              33              34              35              36              37              38              39              40
               41              42              43              44              45              46              47              48              49              50
               51              52              53              54              55              56              57              58              59              60
               61              62              63              64              65              66              67              68              69              70
               71              72              73              74              75              76              77              78              79              80
               81              82              83              84              85              86              87              88              89              90
               91              92              93              94              95              96              97              98              99             100
              101             102             103             104             105             106             107             108             109             110
              111             112             113             114             115             116             117             118             119             120
              121             122             123             124             125             126             127             128             129             130
              131             132             133             134             135             136             137             138             139             140
              141             142             143             144             145             146             147             148             149             150
              151             152             153             154             155             156             157             158             159             160
              161             162             163             164             165             166             167             168             169             170
              171             172             173             174             175             176             177             178             179             180
              181             182             183             184             185             186             187             188             189             190
              191             192             193             194             195             196             197             198             199             200
              201             202             203             204             205             206             207             208             209             210
              211             212             213             214             215             216             217             218             219             220
              221             222             223             224             225             226             227             228             229             230
              231             232             233             234             235             236             237             238             239             240
              241             242             243             244             245             246             247             248             249             250
              251             252             253             254             255             256             257             258             259             260
              261             262             263             264             265             266             267             268             269             270
              271             272             273             274             275             276             277             278             279             280
              281             282             283             284             285             286             287             288             289             290
              291             292             293             294             295             296             297             298             299             300
              301             302             303             304             305             306             307             308             309             310
              311             312             313             314             315             316             317             318             319             320
              321             322             323             324             325             326             327             328             329             330
              331             332             333             334             335             336             337             338             339             340
              341             342             343             344             345             346             347             348             349             350
              351             352             353             354             355             356             357             358             359             360
              361             362             363             364             365             366             367             368             369             370
              371             372             373             374             375             376             377             378             379             380
              381             382             383             384             385             386             387             388             389             390
              391             392             393             394             395             396             397             398             399             400
              401             402             403             404             405             406             407             408             409             410
              411             412             413             414             415             416             417             418             419             420
              421             422             423             424             425             426             427             428             429             430
              431             432             433             434             435             436             437             438             439             440
              441             442             443             444             445             446             447             448             449             450
              451             452             453             454             455             456             457             458             459             460
              461             462             463             464             465             466             467             468             469             470
              471             472             473             474             475             476             477             478             479             480
              481             482             483             484             485             486             487             488             489             490
              491             492             493             494             495             496             497             498             499             500
              501             502             503             504             505             506             507             508             509             510
              511             512             513             514             515             516             517             518             519             520
              521             522             523             524             525             526             527             528             529             530
              531             532             533             534             535             536             537             538             539             540
              541             542             543             544             545             546             547             548             549             550
              551             552             553             554             555             556             557             558             559             560
              561             562             563             564             565             566             567             568             569             570
              571             572             573             574             575             576             577             578             579             580
              581             582             583             584             585             586             587             588             589             590
              591             592             593             594             595             596             597             598             599             600
              601             602             603             604             605             606             607             608             609             610
              611             612             613             614             615             616             617             618             619             620
              621             622             623             624             625             626             627             628             629             630
              631             632             633             634             635             636             637             638             639             640
              641             642             643             644             645             646             647             648             649             650
              651             652             653             654             655             656             657             658             659             660
              661             662             663             664             665             666             667             668             669             670
              671             672             673             674             675             676             677             678             679             680
              681             682             683             684             685             686             687             688             689             690
              691             692             693             694             695             696             697             698             699             700
              701             702             703             704             705             706             707             708             709             710
              711             712             713             714             715             716             717             718             719             720
              721             722             723             724             725             726             727             728             729             730
              731             732             733             734             735             736             737             738             739             740
              741             742             743             744             745             746             747             748             749             750
              751             752             753             754             755             756             757             758             759             760
              761             762             763             764             765             766             767             768             769             770
              771             772             773             774             775             776             777             778             779             780
              781             782             783             784             785             786             787             788             789             790
              791             792             793             794             795             796             797             798             799             800
              801             802             803             804             805             806             807             808             809             810
              811             812             813             814             815             816             817             818             819             820
              821             822             823             824             825             826             827             828             829             830
              831             832             833             834             835             836             837             838             839             840
              841             842             843             844             845             846             847             848             849             850
              851             852             853             854             855             856             857             858             859             860
              861             862             863             864             865             866             867             868             869             870
              871             872             873             874             875             876             877             878             879             880
              881             882             883             884             885             886             887             888             889             890
              891             892             893             894             895             896             897             898             899             900
              901             902             903             904             905             906             907             908             909             910
              911             912             913             914             915             916             917             918             919             920
              921             922             923             924             925             926             927             928             929             930
              931             932             933             934             935             936             937             938             939             940
              941             942             943             944             945             946             947             948             949             950
              951             952             953             954             955             956             957             958             959             960
              961             962             963             964             965             966             967             968             969             970
              971             972             973             974             975             976             977             978             979             980
              981             982             983             984             985             986             987             988             989             990
              991             992             993             994             995             996             997             998             999            1000
             1001            1002            1003            1004            1005            1006            1007            1008            1009            1010
             1011            1012            1013            1014            1015            1016            1017            1018            1019            1020
             1021            1022            1023            1024            1025            1026            1027            1028            1029            1030
             1031            1032            1033            1034            1035            1036            1037            1038            1039            1040
             1041            1042            1043            1044            1045            1046            1047            1048            1049            1050
             1051            1052            1053            1054            1055            1056            1057            1058            1059            1060
             1061            1062            1063            1064            1065            1066            1067            1068            1069            1070
             1071            1072            1073            1074            1075            1076            1077            1078            1079            1080
             1081            1082            1083            1084            1085            1086            1087            1088            1089            1090
             1091            1092            1093            1094            1095            1096            1097            1098            1099            1100
             1101            1102            1103            1104            1105            1106            1107            1108            1109            1110
             1111            1112            1113            1114            1115            1116            1117            1118            1119            1120
             1121            1122            1123            1124            1125            1126            1127            1128            1129            1130
             1131            1132            1133            1134            1135            1136            1137            1138            1139            1140
             1141            1142            1143            1144            1145            1146            1147            1148            1149            1150
             1151            1152            1153            1154            1155            1156            1157            1158            1159            1160
             1161            1162            1163            1164            1165            1166            1167            1168            1169            1170
             1171            1172            1173            1174            1175            1176            1177            1178            1179            1180
             1181            1182            1183            1184            1185            1186            1187            1188            1189            1190
             1191            1192            1193            1194            1195            1196            1197            1198            1199            1200
             1201            1202            1203            1204            1205            1206            1207            1208            1209            1210
             1211            1212            1213            1214            1215            1216            1217            1218            1219            1220
             1221            1222            1223            1224            1225            1226            1227            1228            1229            1230
             1231            1232            1233            1234            1235            1236            1237            1238            1239            1240
             1241            1242            1243            1244            1245            1246            1247            1248            1249            1250
             1251            1252            1253            1254            1255            1256            1257            1258            1259            1260
             1261            1262            1263            1264            1265            1266            1267            1268            1269            1270
             1271            1272            1273            1274            1275            1276            1277            1278            1279            1280
             1281            1282            1283            1284            1285            1286            1287            1288            1289            1290
             1291            1292            1293            1294            1295            1296            1297            1298            1299            1300
             1301            1302            1303            1304            1305            1306            1307            1308            1309            1310
             1311            1312            1313            1314            1315            1316            1317            1318            1319            1320
             1321            1322            1323            1324            1325            1326            1327            1328            1329            1330
             1331            1332            1333            1334            1335            1336            1337            1338            1339            1340
             1341            1342            1343            1344            1345            1346            1347            1348            1349            1350
             1351            1352            1353            1354            1355            1356            1357            1358            1359            1360
             1361            1362            1363            1364            1365            1366            1367            1368            1369            1370
             1371            1372            1373            1374            1375            1376            1377            1378            1379            1380
             1381            1382            1383            1384            1385            1386            1387            1388            1389            1390
             1391            1392            1393            1394            1395            1396            1397            1398            1399            1400
             1401            1402            1403            1404            1405            1406            1407            1408            1409            1410
             1411            1412            1413            1414            1415            1416            1417            1418            1419            1420
             1421            1422            1423            1424            1425            1426            1427            1428            1429            1430
             1431            1432            1433            1434            1435            1436            1437            1438            1439            1440
             1441            1442            1443            1444            1445            1446            1447            1448            1449            1450
             1451            1452            1453            1454            1455            1456            1457            1458            1459            1460
             1461            1462            1463            1464            1465            1466            1467            1468            1469            1470
             1471            1472            1473            1474            1475            1476            1477            1478            1479            1480
             1481            1482            1483            1484            1485            1486            1487            1488            1489            1490
             1491            1492            1493            1494            1495            1496            1497            1498            1499            1500
             1501            1502            1503            1504            1505            1506            1507            1508            1509            1510
             1511            1512            1513            1514            1515            1516            1517            1518            1519            1520
             1521            1522            1523            1524            1525            1526            1527            1528            1529            1530
             1531            1532            1533            1534            1535            1536            1537            1538            1539            1540
             1541            1542            1543            1544            1545            1546            1547            1548            1549            1550
             1551            1552            1553            1554            1555            1556            1557            1558            1559            1560
             1561            1562            1563            1564            1565            1566            1567            1568            1569            1570
             1571            1572            1573            1574            1575            1576            1577            1578            1579            1580
             1581            1582            1583            1584            1585            1586            1587            1588            1589            1590
             1591            1592            1593            1594            1595            1596            1597            1598            1599            1600
             1601            1602            1603            1604            1605            1606            1607            1608            1609            1610
             1611            1612            1613            1614            1615            1616            1617            1618            1619            1620
             1621            1622            1623            1624            1625            1626            1627            1628            1629            1630
             1631            1632            1633            1634            1635            1636            1637            1638            1639            1640
             1641            1642            1643            1644            1645            1646            1647            1648            1649            1650
             1651            1652            1653            1654            1655            1656            1657            1658            1659            1660
             1661            1662            1663            1664            1665            1666            1667            1668            1669            1670
             1671            1672            1673            1674            1675            1676            1677            1678            1679            1680
             1681            1682            1683            1684            1685            1686            1687            1688            1689            1690
             1691            1692            1693            1694            1695            1696            1697            1698            1699            1700
             1701            1702            1703            1704            1705            1706            1707            1708            1709            1710
             1711            1712            1713            1714            1715            1716            1717            1718            1719            1720
             1721            1722            1723            1724            1725            1726            1727            1728            1729            1730
             1731            1732            1733            1734            1735            1736            1737            1738            1739            1740
             1741            1742            1743            1744            1745            1746            1747            1748            1749            1750
             1751            1752            1753            1754            1755            1756            1757            1758            1759            1760
             1761            1762            1763            1764            1765            1766            1767            1768            1769            1770
             1771            1772            1773            1774            1775            1776            1777            1778            1779            1780
             1781            1782            1783            1784            1785            1786            1787            1788            1789            1790
             1791            1792            1793            1794            1795            1796            1797            1798            1799            1800
             1801            1802            1803            1804            1805            1806            1807            1808            1809            1810
             1811            1812            1813            1814            1815            1816            1817            1818            1819            1820
             1821            1822            1823            1824            1825            1826            1827            1828            1829            1830
             1831            1832            1833            1834            1835            1836            1837            1838            1839            1840
             1841            1842            1843            1844            1845            1846            1847            1848            1849            1850
             1851            1852            1853            1854            1855            1856            1857            1858            1859            1860
             1861            1862            1863            1864            1865            1866            1867            1868            1869            1870
             1871            1872            1873            1874            1875            1876            1877            1878            1879            1880
             1881            1882            1883            1884            1885            1886            1887            1888            1889            1890
             1891            1892            1893            1894            1895            1896            1897            1898            1899            1900
             1901            1902            1903            1904            1905            1906            1907            1908            1909            1910
             1911            1912            1913            1914            1915            1916            1917            1918            1919            1920
             1921            1922            1923            1924            1925            1926            1927            1928            1929            1930
             1931            1932            1933            1934            1935            1936            1937            1938            1939            1940
             1941            1942            1943            1944            1945            1946            1947            1948            1949            1950
             1951            1952            1953            1954            1955            1956            1957            1958            1959            1960
             1961            1962            1963            1964            1965            1966            1967            1968            1969            1970
             1971            1972            1973            1974            1975            1976            1977            1978            1979            1980
             1981            1982            1983            1984            1985            1986            1987            1988            1989            1990
             1991            1992            1993            1994            1995            1996            1997            1998            1999            2000
             2001            2002            2003            2004            2005            2006            2007            2008            2009            2010
             2011            2012            2013            2014            2015            2016            2017            2018            2019            2020
             2021            2022            2023            2024            2025            2026            2027            2028            2029            2030
             2031            2032            2033            2034            2035            2036            2037            2038            2039            2040
             2041            2042            2043            2044            2045            2046            2047            2048            2049            2050
             2051            2052            2053            2054            2055            2056            2057            2058            2059            2060
             2061            2062            2063            2064            2065            2066            2067            2068            2069            2070
             2071            2072            2073            2074            2075            2076            2077            2078            2079            2080
             2081            2082            2083            2084            2085            2086            2087            2088            2089            2090
             2091            2092            2093            2094            2095            2096            2097            2098            2099            2100
             2101            2102            2103            2104            2105            2106            2107            2108            2109            2110
             2111            2112            2113            2114            2115            2116            2117            2118            2119            2120
             2121            2122            2123            2124            2125            2126            2127            2128            2129            2130
             2131            2132            2133            2134            2135            2136            2137            2138            2139            2140
             2141            2142            2143            2144            2145            2146            2147            2148            2149            2150
             2151            2152            2153            2154            2155            2156            2157            2158            2159            2160
             2161            2162            2163            2164            2165            2166            2167            2168            2169            2170
             2171            2172            2173            2174            2175            2176            2177            2178            2179            2180
             2181            2182            2183            2184            2185            2186            2187            2188            2189            2190
             2191            2192            2193            2194            2195            2196            2197            2198            2199            2200
             2201            2202            2203            2204            2205            2206            2207            2208            2209            2210
             2211            2212            2213            2214            2215            2216            2217            2218            2219            2220
             2221            2222            2223            2224            2225            2226            2227            2228            2229            2230
             2231            2232            2233            2234            2235            2236            2237            2238            2239            2240
             2241            2242            2243            2244            2245            2246            2247            2248            2249            2250
             2251            2252            2253            2254            2255            2256            2257            2258            2259            2260
             2261            2262            2263            2264            2265            2266            2267            2268            2269            2270
             2271            2272            2273            2274            2275            2276            2277            2278            2279            2280
             2281            2282            2283            2284            2285            2286            2287            2288            2289            2290
             2291            2292            2293            2294            2295            2296            2297            2298            2299            2300
             2301            2302            2303            2304            2305            2306            2307            2308            2309            2310
             2311            2312            2313            2314            2315            2316            2317            2318            2319            2320
             2321            2322            2323            2324            2325            2326            2327            2328            2329            2330
             2331            2332            2333            2334            2335            2336            2337            2338            2339            2340
             2341            2342            2343            2344            2345            2346            2347            2348            2349            2350
             2351            2352            2353            2354            2355            2356            2357            2358            2359            2360
             2361            2362            2363            2364            2365            2366            2367            2368            2369            2370
             2371            2372            2373            2374            2375            2376            2377            2378            2379            2380
             2381            2382            2383            2384            2385            2386            2387            2388            2389            2390
             2391            2392            2393            2394            2395            2396            2397            2398            2399            2400
             2401            2402            2403            2404            2405            2406            2407            2408            2409            2410
             2411            2412            2413            2414            2415            2416            2417            2418            2419            2420
             2421            2422            2423            2424            2425            2426            2427            2428            2429            2430
             2431            2432            2433            2434            2435            2436            2437            2438            2439            2440
             2441            2442            2443            2444            2445            2446            2447            2448            2449            2450
             2451            2452            2453            2454            2455            2456            2457            2458            2459            2460
             2461            2462            2463            2464            2465            2466            2467            2468            2469            2470
             2471            2472            2473            2474            2475            2476            2477            2478            2479            2480
             2481            2482            2483            2484            2485            2486            2487            2488            2489            2490
             2491            2492            2493            2494            2495            2496            2497            2498            2499            2500
             2501            2502            2503            2504            2505            2506            2507            2508            2509            2510
             2511            2512            2513            2514            2515            2516            2517            2518            2519            2520
             2521            2522            2523            2524            2525            2526            2527            2528            2529            2530
             2531            2532            2533            2534            2535            2536            2537            2538            2539            2540
             2541            2542            2543            2544            2545            2546            2547            2548            2549            2550
             2551            2552            2553            2554            2555            2556            2557            2558            2559            2560
             2561            2562            2563            2564            2565            2566            2567            2568            2569            2570
             2571            2572            2573            2574            2575            2576            2577            2578            2579            2580
             2581            2582            2583            2584            2585            2586            2587            2588            2589            2590
             2591            2592            2593            2594            2595            2596            2597            2598            2599            2600
             2601            2602            2603            2604            2605            2606            2607            2608            2609            2610
             2611            2612            2613            2614            2615            2616            2617            2618            2619            2620
             2621            2622            2623            2624            2625            2626            2627            2628            2629            2630
             2631            2632            2633            2634            2635            2636            2637            2638            2639            2640
             2641            2642            2643            2644            2645            2646            2647            2648            2649            2650
             2651            2652            2653            2654            2655            2656            2657            2658            2659            2660
             2661            2662            2663            2664            2665            2666            2667            2668            2669            2670
             2671            2672            2673            2674            2675            2676            2677            2678            2679            2680
             2681            2682            2683            2684            2685            2686            2687            2688            2689            2690
             2691            2692            2693            2694            2695            2696            2697            2698            2699            2700
             2701            2702            2703            2704            2705            2706            2707            2708            2709            2710
             2711            2712            2713            2714            2715            2716            2717            2718            2719            2720
             2721            2722            2723            2724            2725            2726            2727            2728            2729            2730
             2731            2732            2733            2734            2735            2736            2737            2738            2739            2740
             2741            2742            2743            2744            2745            2746            2747            2748            2749            2750
             2751            2752            2753            2754            2755            2756            2757            2758            2759            2760
             2761            2762            2763            2764            2765            2766            2767            2768            2769            2770
             2771            2772            2773            2774            2775            2776            2777            2778            2779            2780
             2781            2782            2783            2784            2785            2786            2787            2788            2789            2790
             2791            2792            2793            2794            2795            2796            2797            2798            2799            2800
             2801            2802            2803            2804            2805            2806            2807            2808            2809            2810
             2811            2812            2813            2814            2815            2816            2817            2818            2819            2820
             2821            2822            2823            2824            2825            2826            2827            2828            2829            2830
             2831            2832            2833            2834            2835            2836            2837            2838            2839            2840
             2841            2842            2843            2844            2845            2846            2847            2848            2849            2850
             2851            2852            2853            2854            2855            2856            2857            2858            2859            2860
             2861            2862            2863            2864            2865            2866            2867            2868            2869            2870
             2871            2872            2873            2874            2875            2876            2877            2878            2879            2880
             2881            2882            2883            2884            2885            2886            2887            2888            2889            2890
             2891            2892            2893            2894            2895            2896            2897            2898            2899            2900
             2901            2902            2903            2904            2905            2906            2907            2908            2909            2910
             2911            2912            2913            2914            2915            2916            2917            2918            2919            2920
             2921            2922            2923            2924            2925            2926            2927            2928            2929            2930
             2931            2932            2933            2934            2935            2936            2937            2938            2939            2940
             2941            2942            2943            2944            2945            2946            2947            2948            2949            2950
             2951            2952            2953            2954            2955            2956            2957            2958            2959            2960
             2961            2962            2963            2964            2965            2966            2967            2968            2969            2970
             2971            2972            2973            2974            2975            2976            2977            2978            2979            2980
             2981            2982            2983            2984            2985            2986            2987            2988            2989            2990
             2991            2992            2993            2994            2995            2996            2997            2998            2999            3000
             3001            3002            3003            3004            3005            3006            3007            3008            3009            3010
             3011            3012            3013            3014            3015            3016            3017            3018            3019            3020
             3021            3022            3023            3024            3025            3026            3027            3028            3029            3030
             3031            3032            3033            3034            3035            3036            3037            3038            3039            3040
             3041            3042            3043            3044            3045            3046            3047            3048            3049            3050
             3051            3052            3053            3054            3055            3056            3057            3058            3059            3060
             3061            3062            3063            3064            3065            3066            3067            3068            3069            3070
             3071            3072            3073            3074            3075            3076            3077            3078            3079            3080
             3081            3082            3083            3084            3085            3086            3087            3088            3089            3090
             3091            3092            3093            3094            3095            3096            3097            3098            3099            3100
             3101            3102            3103            3104            3105            3106            3107            3108            3109            3110
             3111            3112            3113            3114            3115            3116            3117            3118            3119            3120
             3121            3122            3123            3124            3125            3126            3127            3128            3129            3130
             3131            3132            3133            3134            3135
 ................................................................................................................................................................
   1      133.731         133.719         133.684         133.611         133.568         133.560         133.439         133.417         133.537         133.626    
          133.705         133.775         133.839         133.900         133.958         134.014         134.068         134.122         134.173         134.222    
          134.270         134.314         134.349         133.628         133.653         133.646         133.614         133.550         133.452         133.373    
          133.470         133.421         133.366         133.426         133.369         133.353         133.498         133.595         133.676         133.749    
          133.818         133.884         133.949         134.012         134.073         134.131         134.188         134.244         134.302         134.369    
          134.477         133.596         133.606         133.614         133.607         133.583         133.540         133.480         133.422         133.398    
          133.451         133.436         133.403         133.452         133.423         133.408         133.504         133.540         133.455         133.505    
          133.589         133.670         133.747         133.822         133.895         133.964         134.031         134.096         134.159         134.221    
          134.287         134.359         134.445         134.539         133.580         133.586         133.591         133.593         133.586         133.570    
          133.543         133.510         133.479         133.451         133.410         133.457         133.431         133.411         133.506         133.541    
          133.458         133.507         133.592         133.678         133.763         133.845         133.923         133.995         134.064         134.131    
          134.198         134.267         134.341         134.421         134.506         134.596         133.568         133.572         133.577         133.580    
          133.581         133.576         133.566         133.550         133.530         133.509         133.487         133.458         133.411         133.460    
          133.436         133.413         133.510         133.548         133.462         133.514         133.605         133.704         133.799         133.885    
          133.962         134.034         134.104         134.173         134.245         134.321         134.400         134.482         134.569         134.659    
          133.555         133.560         133.565         133.570         133.573         133.574         133.572         133.567         133.558         133.546    
          133.533         133.519         133.499         133.469         133.416         133.465         133.446         133.420         133.516         133.563    
          133.453         133.523         133.641         133.759         133.855         133.934         134.006         134.076         134.147         134.221    
          134.298         134.379         134.463         134.550         134.640         134.735         133.539         133.545         133.552         133.559    
          133.564         133.569         133.571         133.572         133.570         133.567         133.561         133.555         133.547         133.536    
          133.520         133.492         133.433         133.467         133.478         133.450         133.553         133.626         133.500         133.611    
          133.736         133.837         133.912         133.980         134.047         134.118         134.193         134.273         134.357         134.444    
          134.535         134.630         134.729         134.833         133.512         133.526         133.536         133.546         133.554         133.560    
          133.566         133.571         133.574         133.575         133.576         133.575         133.574         133.573         133.570         133.567    
          133.562         133.555         133.504         133.613         133.605         133.668         133.728         133.780         133.782         133.818    
          133.843         133.896         133.951         134.013         134.082         134.160         134.244         134.333         134.425         134.521    
          134.623         134.732         134.851         134.985         133.472         133.498         133.516         133.529         133.540         133.549    
          133.558         133.565         133.571         133.577         133.581         133.585         133.588         133.592         133.596         133.602    
          133.609         133.620         133.643         133.698         133.771         133.811         133.768         133.800         133.844         133.857    
          133.831         133.848         133.873         133.888         133.866         133.876         133.913         133.934         133.891         133.918    
          133.969         134.035         134.118         134.210         134.305         134.403         134.505         134.612         134.731         134.870    
          135.057         135.381         135.582         135.730         135.842         135.932         136.009         136.077         136.138         136.194    
          136.245         136.294         136.345         136.395         136.444         136.491         136.541         136.598         136.653         136.703    
          136.683       -1.000000E+30   -1.000000E+30   -1.000000E+30   -1.000000E+30   -1.000000E+30   -1.000000E+30   -1.000000E+30   -1.000000E+30   -1.000000E+30
        -1.000000E+30   -1.000000E+30   -1.000000E+30   -1.000000E+30   -1.000000E+30   -1.000000E+30   -1.000000E+30     133.468         133.491         133.509    
          133.523         133.536         133.547         133.556         133.565         133.573         133.580         133.587         133.594         133.601    
          133.608         133.617         133.628         133.642         133.661         133.690         133.733         133.786         133.833         133.867    
          133.884         133.892         133.886         133.892         133.916         133.937         133.895         133.902         133.966         133.996    
          133.917         133.952         134.063         134.171         134.274         134.377         134.483         134.594         134.715         134.851    
          135.016         135.218         135.388         135.528         135.643         135.736         135.815         135.883         135.942         135.996    
          136.043         136.084         136.123         136.158         136.187         136.209         136.221         136.215         136.177       -1.000000E+30
        -1.000000E+30   -1.000000E+30   -1.000000E+30   -1.000000E+30   -1.000000E+30   -1.000000E+30   -1.000000E+30   -1.000000E+30   -1.000000E+30   -1.000000E+30
        -1.000000E+30   -1.000000E+30   -1.000000E+30   -1.000000E+30   -1.000000E+30   -1.000000E+30   -1.000000E+30   -1.000000E+30     133.465         133.486    
          133.504         133.519         133.533         133.545         133.555         133.566         133.575         133.584         133.593         133.603    
          133.612         133.623         133.635         133.649         133.667         133.690         133.718         133.755         133.795         133.834    
          133.868         133.894         133.914         133.921         133.920         133.925         133.918         134.010         134.131         134.241    
          134.348         134.455         134.567         134.686         134.813         134.956         135.110         135.251         135.378         135.488    
          135.580         135.660         135.727         135.785         135.836         135.881         135.920         135.952         135.980         136.001    
          136.014         136.014         135.994       -1.000000E+30   -1.000000E+30   -1.000000E+30   -1.000000E+30   -1.000000E+30   -1.000000E+30   -1.000000E+30
        -1.000000E+30   -1.000000E+30   -1.000000E+30   -1.000000E+30   -1.000000E+30   -1.000000E+30   -1.000000E+30   -1.000000E+30   -1.000000E+30   -1.000000E+30
        -1.000000E+30   -1.000000E+30   -1.000000E+30   -1.000000E+30     133.462         133.483         133.501         133.517         133.531         133.544    
          133.555         133.567         133.578         133.589         133.599         133.611         133.622         133.635         133.650         133.667    
          133.687         133.710         133.738         133.770         133.806         133.841         133.874         133.904         133.930         133.939    
          133.941         133.953         133.963         133.940         133.974         133.982         134.017         134.096         134.208         134.315    
          134.423         134.533         134.649         134.768         134.895         135.024         135.147         135.261         135.365         135.454    
          135.531         135.597         135.654         135.703         135.746         135.784         135.814         135.838         135.855         135.866    
          135.867         135.852       -1.000000E+30   -1.000000E+30   -1.000000E+30   -1.000000E+30   -1.000000E+30   -1.000000E+30   -1.000000E+30   -1.000000E+30
        -1.000000E+30   -1.000000E+30   -1.000000E+30   -1.000000E+30   -1.000000E+30   -1.000000E+30   -1.000000E+30   -1.000000E+30   -1.000000E+30   -1.000000E+30
        -1.000000E+30   -1.000000E+30   -1.000000E+30   -1.000000E+30     133.460         133.481         133.499         133.515         133.530         133.543    
          133.556         133.568         133.580         133.593         133.605         133.618         133.631         133.646         133.662         133.681    
          133.701         133.725         133.752         133.783         133.815         133.848         133.882         133.914         133.946         133.979    
          134.003         134.028         134.014         134.033         134.055         134.098         134.054         134.086         134.175         134.279    
          134.385         134.495         134.607         134.721         134.837         134.953         135.062         135.166         135.263         135.347    
          135.422         135.486         135.541         135.589         135.630         135.666         135.694         135.717         135.733         135.743    
          135.746         135.731       -1.000000E+30   -1.000000E+30   -1.000000E+30   -1.000000E+30   -1.000000E+30   -1.000000E+30   -1.000000E+30   -1.000000E+30
        -1.000000E+30   -1.000000E+30   -1.000000E+30   -1.000000E+30   -1.000000E+30   -1.000000E+30   -1.000000E+30   -1.000000E+30   -1.000000E+30   -1.000000E+30
        -1.000000E+30   -1.000000E+30   -1.000000E+30   -1.000000E+30   -1.000000E+30     133.459         133.480         133.498         133.514         133.529    
          133.543         133.557         133.570         133.583         133.596         133.610         133.624         133.639         133.655         133.672    
          133.692         133.713         133.737         133.764         133.793         133.824         133.856         133.889         133.923         133.958    
          133.995         134.036         134.067         134.094         134.072         134.092         134.132         134.169         134.113         134.155    
          134.237         134.342         134.451         134.562         134.673         134.782         134.890         134.991         135.087         135.176    
          135.256         135.326         135.388         135.441         135.487         135.527         135.561         135.589         135.610         135.626    
          135.636         135.640         135.637       -1.000000E+30   -1.000000E+30   -1.000000E+30   -1.000000E+30   -1.000000E+30   -1.000000E+30   -1.000000E+30
        -1.000000E+30   -1.000000E+30   -1.000000E+30   -1.000000E+30   -1.000000E+30   -1.000000E+30   -1.000000E+30   -1.000000E+30   -1.000000E+30   -1.000000E+30
        -1.000000E+30   -1.000000E+30   -1.000000E+30   -1.000000E+30   -1.000000E+30   -1.000000E+30   -1.000000E+30     133.458         133.479         133.497    
          133.514         133.529         133.544         133.558         133.572         133.586         133.600         133.614         133.629         133.645    
          133.662         133.680         133.700         133.722         133.746         133.772         133.801         133.831         133.862         133.896    
          133.930         133.966         134.004         134.043         134.084         134.111         134.125         134.111         134.121         134.176    
          134.217         134.142         134.194         134.289         134.402         134.516         134.626         134.731         134.834         134.929    
          135.019         135.101         135.176         135.244         135.303         135.354         135.398         135.437         135.469         135.496    
          135.517         135.534         135.544         135.549         135.551       -1.000000E+30   -1.000000E+30   -1.000000E+30   -1.000000E+30   -1.000000E+30
        -1.000000E+30   -1.000000E+30   -1.000000E+30   -1.000000E+30   -1.000000E+30   -1.000000E+30   -1.000000E+30   -1.000000E+30   -1.000000E+30   -1.000000E+30
        -1.000000E+30   -1.000000E+30   -1.000000E+30   -1.000000E+30   -1.000000E+30   -1.000000E+30   -1.000000E+30   -1.000000E+30   -1.000000E+30   -1.000000E+30
          133.458         133.479         133.497         133.514         133.529         133.544         133.559         133.573         133.588         133.603    
          133.618         133.634         133.650         133.668         133.687         133.707         133.730         133.754         133.779         133.807    
          133.837         133.868         133.901         133.936         133.972         134.009         134.048         134.085         134.118         134.132    
          134.155         134.135         134.138         134.215         134.262         134.172         134.232         134.345         134.468         134.581    
          134.685         134.784         134.876         134.960         135.038         135.108         135.172         135.229         135.277         135.320    
          135.357         135.389         135.415         135.437         135.454         135.466         135.472         135.475         135.486       -1.000000E+30
        -1.000000E+30   -1.000000E+30   -1.000000E+30   -1.000000E+30   -1.000000E+30   -1.000000E+30   -1.000000E+30   -1.000000E+30   -1.000000E+30   -1.000000E+30
        -1.000000E+30   -1.000000E+30   -1.000000E+30   -1.000000E+30   -1.000000E+30   -1.000000E+30   -1.000000E+30   -1.000000E+30   -1.000000E+30   -1.000000E+30
        -1.000000E+30   -1.000000E+30   -1.000000E+30     133.457         133.478         133.497         133.514         133.529         133.545         133.560    
          133.575         133.590         133.605         133.621         133.638         133.655         133.673         133.692         133.713         133.735    
          133.759         133.785         133.812         133.842         133.872         133.905         133.940         133.976         134.013         134.051    
          134.089         134.123         134.148         134.147         134.182         134.164         134.165         134.269         134.330         134.240    
          134.314         134.424         134.541         134.645         134.740         134.828         134.910         134.984         135.050         135.110    
          135.164         135.211         135.252         135.287         135.318         135.344         135.366         135.384         135.398         135.407    
          135.413         135.418       -1.000000E+30   -1.000000E+30   -1.000000E+30   -1.000000E+30   -1.000000E+30   -1.000000E+30   -1.000000E+30   -1.000000E+30
        -1.000000E+30   -1.000000E+30   -1.000000E+30   -1.000000E+30   -1.000000E+30   -1.000000E+30   -1.000000E+30   -1.000000E+30   -1.000000E+30   -1.000000E+30
        -1.000000E+30   -1.000000E+30   -1.000000E+30   -1.000000E+30   -1.000000E+30   -1.000000E+30     133.457         133.479         133.497         133.514    
          133.530         133.545         133.560         133.576         133.591         133.607         133.624         133.640         133.658         133.677    
          133.696         133.717         133.740         133.764         133.789         133.816         133.845         133.876         133.908         133.943    
          133.979         134.017         134.055         134.094         134.131         134.165         134.195         134.224         134.295         134.218    
          134.280         134.389         134.507         134.610         134.703         134.788         134.866         134.936         134.999         135.056    
          135.106         135.152         135.191         135.225         135.255         135.281         135.303         135.322         135.337         135.349    
          135.357         135.364         135.370       -1.000000E+30   -1.000000E+30   -1.000000E+30   -1.000000E+30   -1.000000E+30   -1.000000E+30   -1.000000E+30
        -1.000000E+30   -1.000000E+30   -1.000000E+30   -1.000000E+30   -1.000000E+30   -1.000000E+30   -1.000000E+30   -1.000000E+30   -1.000000E+30   -1.000000E+30
        -1.000000E+30   -1.000000E+30   -1.000000E+30   -1.000000E+30   -1.000000E+30   -1.000000E+30     133.458         133.479         133.497         133.514    
          133.530         133.545         133.561         133.576         133.592         133.609         133.625         133.643         133.661         133.680    
          133.700         133.721         133.743         133.767         133.792         133.819         133.848         133.879         133.911         133.945    
          133.981         134.019         134.058         134.098         134.139         134.178         134.215         134.225         134.247         134.239    
          134.241         134.360         134.482         134.583         134.673         134.754         134.829         134.896         134.956         135.009    
          135.056         135.099         135.138         135.171         135.200         135.226         135.249         135.269         135.285         135.299    
          135.309         135.318         135.327         135.334       -1.000000E+30   -1.000000E+30   -1.000000E+30   -1.000000E+30   -1.000000E+30   -1.000000E+30
        -1.000000E+30   -1.000000E+30   -1.000000E+30   -1.000000E+30   -1.000000E+30   -1.000000E+30   -1.000000E+30   -1.000000E+30   -1.000000E+30   -1.000000E+30
        -1.000000E+30   -1.000000E+30   -1.000000E+30   -1.000000E+30   -1.000000E+30   -1.000000E+30     133.458         133.480         133.498         133.514    
          133.529         133.545         133.561         133.577         133.593         133.609         133.626         133.644         133.662         133.682    
          133.702         133.723         133.745         133.769         133.795         133.822         133.850         133.881         133.913         133.947    
          133.983         134.021         134.061         134.102         134.146         134.191         134.236         134.263         134.283         134.281    
          134.306         134.319         134.381         134.346         134.394         134.469         134.564         134.650         134.727         134.798    
          134.862         134.919         134.970         135.015         135.055         135.092         135.125         135.154         135.180         135.203    
          135.224         135.242         135.257         135.269         135.279         135.287         135.295         135.302       -1.000000E+30   -1.000000E+30
        -1.000000E+30   -1.000000E+30   -1.000000E+30   -1.000000E+30   -1.000000E+30   -1.000000E+30   -1.000000E+30   -1.000000E+30   -1.000000E+30   -1.000000E+30
        -1.000000E+30   -1.000000E+30   -1.000000E+30   -1.000000E+30   -1.000000E+30   -1.000000E+30   -1.000000E+30   -1.000000E+30   -1.000000E+30     133.460    
          133.483         133.498         133.513         133.528         133.544         133.560         133.576         133.592         133.609         133.627    
          133.645         133.663         133.683         133.703         133.724         133.747         133.771         133.796         133.823         133.852    
          133.882         133.914         133.948         133.984         134.022         134.062         134.105         134.151         134.200         134.253    
          134.313         134.362         134.403         134.369         134.407         134.468         134.551         134.630         134.704         134.772    
          134.833         134.887         134.936         134.980         135.019         135.054         135.085         135.114         135.141         135.164    
          135.186         135.204         135.220         135.234         135.246         135.254         135.263         135.269         135.276         135.289    
        -1.000000E+30   -1.000000E+30   -1.000000E+30   -1.000000E+30   -1.000000E+30   -1.000000E+30   -1.000000E+30   -1.000000E+30   -1.000000E+30   -1.000000E+30
        -1.000000E+30   -1.000000E+30   -1.000000E+30   -1.000000E+30   -1.000000E+30   -1.000000E+30   -1.000000E+30   -1.000000E+30   -1.000000E+30     133.491    
          133.498         133.511         133.526         133.542         133.558         133.575         133.591         133.609         133.626         133.644    
          133.663         133.683         133.703         133.725         133.748         133.772         133.797         133.824         133.852         133.882    
          133.914         133.948         133.983         134.021         134.062         134.106         134.153         134.204         134.261         134.323    
          134.373         134.409         134.373         134.409         134.464         134.539         134.613         134.683         134.749         134.808    
          134.860         134.907         134.950         134.988         135.021         135.051         135.080         135.106         135.130         135.151    
          135.171         135.188         135.203         135.216         135.228         135.237         135.245         135.252         135.257         135.270    
        -1.000000E+30   -1.000000E+30   -1.000000E+30   -1.000000E+30   -1.000000E+30   -1.000000E+30   -1.000000E+30   -1.000000E+30   -1.000000E+30   -1.000000E+30
        -1.000000E+30   -1.000000E+30   -1.000000E+30   -1.000000E+30   -1.000000E+30   -1.000000E+30   -1.000000E+30   -1.000000E+30     133.489         133.506    
          133.522         133.538         133.555         133.572         133.589         133.607         133.625         133.643         133.663         133.682    
          133.703         133.725         133.748         133.772         133.797         133.824         133.852         133.882         133.914         133.947    
          133.982         134.020         134.061         134.105         134.152         134.204         134.262         134.310         134.337         134.308    
          134.337         134.372         134.406         134.370         134.404         134.457         134.528         134.597         134.664         134.728    
          134.785         134.836         134.882         134.923         134.960         134.992         135.006         134.980         134.994         135.022    
          135.034         135.009         135.023         135.049         135.075         135.099         135.120         135.140         135.159         135.175    
          135.190         135.204         135.215         135.226         135.234         135.241         135.246       -1.000000E+30   -1.000000E+30   -1.000000E+30
        -1.000000E+30   -1.000000E+30   -1.000000E+30   -1.000000E+30   -1.000000E+30   -1.000000E+30   -1.000000E+30   -1.000000E+30   -1.000000E+30   -1.000000E+30
        -1.000000E+30   -1.000000E+30   -1.000000E+30   -1.000000E+30   -1.000000E+30     133.498         133.516         133.534         133.551         133.569    
          133.587         133.605         133.623         133.642         133.661         133.681         133.702         133.724         133.747         133.771    
          133.797         133.823         133.851         133.881         133.912         133.945         133.980         134.018         134.058         134.102    
          134.149         134.201         134.258         134.305         134.335         134.304         134.330         134.367         134.400         134.365    
          134.394         134.436         134.465         134.429         134.463         134.515         134.582         134.646         134.708         134.764    
          134.814         134.859         134.900         134.934         134.949         134.923         134.938         134.966         134.982         134.955    
          134.970         134.996         135.010         134.984         134.998         135.024         135.034         135.011         135.024         135.048    
          135.072         135.093         135.113         135.132         135.150         135.166         135.181         135.195         135.206         135.217    
          135.226         135.233         135.238       -1.000000E+30   -1.000000E+30   -1.000000E+30   -1.000000E+30   -1.000000E+30   -1.000000E+30   -1.000000E+30
        -1.000000E+30   -1.000000E+30   -1.000000E+30   -1.000000E+30   -1.000000E+30   -1.000000E+30   -1.000000E+30   -1.000000E+30   -1.000000E+30   -1.000000E+30
          133.508         133.527         133.546         133.564         133.583         133.601         133.620         133.639         133.659         133.679    
          133.700         133.723         133.746         133.770         133.795         133.822         133.850         133.879         133.910         133.943    
          133.977         134.014         134.054         134.097         134.144         134.194         134.250         134.309         134.372         134.425    
          134.459         134.422         134.451         134.494         134.520         134.487         134.514         134.557         134.584         134.549    
          134.576         134.620         134.646         134.612         134.638         134.681         134.707         134.673         134.698         134.739    
          134.761         134.730         134.752         134.789         134.809         134.780         134.800         134.835         134.853         134.825    
          134.843         134.875         134.891         134.865         134.881         134.911         134.927         134.901         134.916         134.943    
          134.959         134.933         134.948         134.973         134.987         134.963         134.976         134.999         135.011         134.989    
          135.002         135.025         135.048         135.069         135.089         135.108         135.127         135.143         135.160         135.175    
          135.188         135.199         135.208         135.217       -1.000000E+30   -1.000000E+30   -1.000000E+30   -1.000000E+30   -1.000000E+30   -1.000000E+30
        -1.000000E+30   -1.000000E+30   -1.000000E+30   -1.000000E+30   -1.000000E+30   -1.000000E+30   -1.000000E+30   -1.000000E+30   -1.000000E+30   -1.000000E+30
        -1.000000E+30   -1.000000E+30     133.519         133.539         133.559         133.578         133.597         133.616         133.636         133.656    
          133.677         133.698         133.720         133.744         133.768         133.793         133.820         133.848         133.877         133.907    
          133.939         133.973         134.010         134.049         134.090         134.136         134.185         134.239         134.296         134.359    
          134.425         134.489         134.552         134.613         134.673         134.727         134.776         134.820         134.860         134.895    
          134.923         134.938         134.916         134.929         134.953         134.966         134.944         134.955         134.979         134.991    
          134.968         134.981         135.004         135.013         134.993         135.005         135.026         135.048         135.068         135.087    
          135.106         135.123         135.140         135.156         135.170         135.182         135.192       -1.000000E+30   -1.000000E+30   -1.000000E+30
        -1.000000E+30   -1.000000E+30   -1.000000E+30   -1.000000E+30   -1.000000E+30   -1.000000E+30   -1.000000E+30   -1.000000E+30   -1.000000E+30   -1.000000E+30
        -1.000000E+30   -1.000000E+30   -1.000000E+30   -1.000000E+30   -1.000000E+30   -1.000000E+30     133.530         133.551         133.571         133.591    
          133.611         133.631         133.652         133.673         133.695         133.717         133.741         133.765         133.791         133.817    
          133.845         133.874         133.904         133.935         133.968         134.004         134.041         134.082         134.126         134.174    
          134.226         134.282         134.344         134.409         134.473         134.536         134.597         134.657         134.712         134.760    
          134.804         134.843         134.878         134.909         134.936         134.959         134.972         134.951         134.963         134.984    
          134.994         134.976         134.986         135.007         135.028         135.048         135.067         135.086         135.103         135.119    
          135.137         135.152         135.164       -1.000000E+30   -1.000000E+30   -1.000000E+30   -1.000000E+30   -1.000000E+30   -1.000000E+30   -1.000000E+30
        -1.000000E+30   -1.000000E+30   -1.000000E+30   -1.000000E+30   -1.000000E+30   -1.000000E+30   -1.000000E+30   -1.000000E+30   -1.000000E+30   -1.000000E+30
        -1.000000E+30   -1.000000E+30   -1.000000E+30     133.542         133.563         133.584         133.605         133.626         133.647         133.668    
          133.690         133.713         133.737         133.762         133.787         133.814         133.841         133.870         133.899         133.930    
          133.963         133.997         134.033         134.072         134.115         134.161         134.212         134.267         134.328         134.391    
          134.455         134.519         134.580         134.641         134.696         134.746         134.790         134.828         134.863         134.893    
          134.918         134.929         134.911         134.922         134.942         134.954         134.934         134.947         134.968         134.989    
          135.010         135.030         135.048         135.066         135.084         135.100         135.117         135.132       -1.000000E+30   -1.000000E+30
        -1.000000E+30   -1.000000E+30   -1.000000E+30   -1.000000E+30   -1.000000E+30   -1.000000E+30   -1.000000E+30   -1.000000E+30   -1.000000E+30   -1.000000E+30
        -1.000000E+30   -1.000000E+30   -1.000000E+30   -1.000000E+30   -1.000000E+30   -1.000000E+30   -1.000000E+30   -1.000000E+30   -1.000000E+30     133.553    
          133.575         133.597         133.619         133.641         133.663         133.685         133.708         133.732         133.757         133.783    
          133.809         133.836         133.865         133.894         133.924         133.956         133.989         134.024         134.062         134.103    
          134.148         134.197         134.250         134.309         134.372         134.436         134.501         134.563         134.625         134.682    
          134.732         134.776         134.815         134.849         134.879         134.902         134.914         134.897         134.907         134.926    
          134.938         134.919         134.931         134.951         134.972         134.993         135.012         135.030         135.048         135.065    
          135.081         135.097         135.113       -1.000000E+30   -1.000000E+30   -1.000000E+30   -1.000000E+30   -1.000000E+30   -1.000000E+30   -1.000000E+30
        -1.000000E+30   -1.000000E+30   -1.000000E+30   -1.000000E+30   -1.000000E+30   -1.000000E+30   -1.000000E+30   -1.000000E+30   -1.000000E+30   -1.000000E+30
        -1.000000E+30   -1.000000E+30   -1.000000E+30   -1.000000E+30     133.564         133.588         133.611         133.634         133.656         133.679    
          133.703         133.727         133.752         133.777         133.804         133.831         133.859         133.888         133.917         133.948    
          133.980         134.015         134.051         134.091         134.134         134.181         134.232         134.289         134.352         134.416    
          134.481         134.546         134.609         134.668         134.719         134.764         134.802         134.836         134.865         134.891    
          134.911         134.923         134.906         134.917         134.937         134.957         134.977         134.996         135.014         135.030    
          135.048         135.064         135.078       -1.000000E+30   -1.000000E+30   -1.000000E+30   -1.000000E+30   -1.000000E+30   -1.000000E+30   -1.000000E+30
        -1.000000E+30   -1.000000E+30   -1.000000E+30   -1.000000E+30   -1.000000E+30   -1.000000E+30   -1.000000E+30   -1.000000E+30   -1.000000E+30   -1.000000E+30
        -1.000000E+30   -1.000000E+30   -1.000000E+30   -1.000000E+30   -1.000000E+30     133.576         133.601         133.625         133.648         133.672    
          133.696         133.720         133.745         133.771         133.797         133.824         133.852         133.880         133.909         133.940    
          133.971         134.004         134.040         134.078         134.120         134.165         134.214         134.269         134.330         134.395    
          134.461         134.528         134.592         134.653         134.707         134.753         134.790         134.822         134.852         134.877    
          134.897         134.909         134.891         134.903         134.922         134.943         134.962         134.980         134.998         135.014    
          135.031         135.047         135.061       -1.000000E+30   -1.000000E+30   -1.000000E+30   -1.000000E+30   -1.000000E+30   -1.000000E+30   -1.000000E+30
        -1.000000E+30   -1.000000E+30   -1.000000E+30   -1.000000E+30   -1.000000E+30   -1.000000E+30   -1.000000E+30   -1.000000E+30   -1.000000E+30   -1.000000E+30
        -1.000000E+30   -1.000000E+30   -1.000000E+30   -1.000000E+30   -1.000000E+30     133.587         133.613         133.638         133.663         133.688    
          133.713         133.738         133.764         133.790         133.817         133.844         133.872         133.901         133.931         133.961    
          133.993         134.028         134.065         134.105         134.148         134.196         134.248         134.309         134.373         134.440    
          134.509         134.576         134.639         134.694         134.741         134.778         134.810         134.838         134.863         134.883    
          134.894         134.877         134.888         134.907         134.928         134.948         134.967         134.984         135.000         135.017    
          135.032         135.045         135.060         135.074       -1.000000E+30   -1.000000E+30   -1.000000E+30   -1.000000E+30   -1.000000E+30   -1.000000E+30
        -1.000000E+30   -1.000000E+30   -1.000000E+30   -1.000000E+30   -1.000000E+30   -1.000000E+30   -1.000000E+30   -1.000000E+30   -1.000000E+30   -1.000000E+30
        -1.000000E+30   -1.000000E+30   -1.000000E+30   -1.000000E+30     133.599         133.626         133.652         133.678         133.703         133.729    
          133.755         133.781         133.808         133.836         133.863         133.892         133.921         133.951         133.982         134.016    
          134.052         134.090         134.132         134.178         134.228         134.286         134.351         134.419         134.490         134.560    
          134.625         134.682         134.728         134.766         134.797         134.824         134.848         134.869         134.879         134.862    
          134.873         134.892         134.913         134.934         134.954         134.972         134.989         135.005         135.019         135.033    
          135.047         135.057         135.074       -1.000000E+30   -1.000000E+30   -1.000000E+30   -1.000000E+30   -1.000000E+30   -1.000000E+30   -1.000000E+30
        -1.000000E+30   -1.000000E+30   -1.000000E+30   -1.000000E+30   -1.000000E+30   -1.000000E+30   -1.000000E+30   -1.000000E+30   -1.000000E+30   -1.000000E+30
        -1.000000E+30   -1.000000E+30   -1.000000E+30   -1.000000E+30   -1.000000E+30   -1.000000E+30   -1.000000E+30   -1.000000E+30   -1.000000E+30   -1.000000E+30
        -1.000000E+30   -1.000000E+30   -1.000000E+30   -1.000000E+30   -1.000000E+30   -1.000000E+30   -1.000000E+30   -1.000000E+30   -1.000000E+30   -1.000000E+30
        -1.000000E+30   -1.000000E+30   -1.000000E+30   -1.000000E+30   -1.000000E+30   -1.000000E+30   -1.000000E+30   -1.000000E+30   -1.000000E+30     133.610    
          133.639         133.666         133.692         133.719         133.745         133.772         133.799         133.826         133.854         133.882    
          133.911         133.941         133.971         134.004         134.038         134.076         134.116         134.161         134.209         134.265    
          134.327         134.395         134.467         134.542         134.609         134.669         134.716         134.752         134.783         134.810    
          134.834         134.854         134.864         134.847         134.858         134.877         134.898         134.920         134.941         134.960    
          134.979         134.996         135.011         135.025         135.038         135.049         135.058         135.070       -1.000000E+30   -1.000000E+30
        -1.000000E+30   -1.000000E+30   -1.000000E+30   -1.000000E+30   -1.000000E+30   -1.000000E+30   -1.000000E+30   -1.000000E+30   -1.000000E+30   -1.000000E+30
        -1.000000E+30   -1.000000E+30   -1.000000E+30   -1.000000E+30   -1.000000E+30   -1.000000E+30   -1.000000E+30   -1.000000E+30   -1.000000E+30   -1.000000E+30
        -1.000000E+30   -1.000000E+30   -1.000000E+30   -1.000000E+30   -1.000000E+30   -1.000000E+30   -1.000000E+30   -1.000000E+30   -1.000000E+30   -1.000000E+30
        -1.000000E+30   -1.000000E+30   -1.000000E+30   -1.000000E+30   -1.000000E+30   -1.000000E+30   -1.000000E+30   -1.000000E+30   -1.000000E+30   -1.000000E+30
        -1.000000E+30   -1.000000E+30   -1.000000E+30     133.622         133.651         133.679         133.706         133.734         133.761         133.788    
          133.816         133.844         133.872         133.901         133.930         133.960         133.992         134.025         134.061         134.101    
          134.144         134.190         134.246       -1.000000E+30   -1.000000E+30   -1.000000E+30   -1.000000E+30   -1.000000E+30   -1.000000E+30     134.704    
          134.737         134.768         134.796         134.818         134.827         134.810         134.820         134.839         134.849         134.832    
          134.842         134.862         134.884         134.906         134.928         134.949         134.969         134.986         135.002         135.018    
          135.032         135.043         135.053         135.063         135.068         135.060         135.065         135.076         135.081         135.073    
          135.077       -1.000000E+30   -1.000000E+30   -1.000000E+30   -1.000000E+30   -1.000000E+30   -1.000000E+30   -1.000000E+30   -1.000000E+30   -1.000000E+30
        -1.000000E+30   -1.000000E+30   -1.000000E+30   -1.000000E+30   -1.000000E+30   -1.000000E+30   -1.000000E+30   -1.000000E+30   -1.000000E+30   -1.000000E+30
        -1.000000E+30   -1.000000E+30   -1.000000E+30   -1.000000E+30   -1.000000E+30   -1.000000E+30   -1.000000E+30     133.633         133.663         133.692    
          133.720         133.748         133.776         133.804         133.833         133.861         133.890         133.919         133.949         133.981    
          134.014         134.048         134.085         134.125       -1.000000E+30   -1.000000E+30   -1.000000E+30   -1.000000E+30   -1.000000E+30   -1.000000E+30
        -1.000000E+30     134.619         134.685         134.720         134.751         134.779         134.802         134.813         134.795         134.807    
          134.827         134.849         134.872         134.895         134.918         134.939         134.960         134.978         134.994         135.010    
          135.025         135.038         135.048         135.053         135.046         135.051         135.058         135.061         135.056         135.059    
          135.069       -1.000000E+30   -1.000000E+30   -1.000000E+30   -1.000000E+30   -1.000000E+30   -1.000000E+30   -1.000000E+30   -1.000000E+30   -1.000000E+30
        -1.000000E+30   -1.000000E+30   -1.000000E+30   -1.000000E+30   -1.000000E+30   -1.000000E+30   -1.000000E+30   -1.000000E+30   -1.000000E+30   -1.000000E+30
        -1.000000E+30   -1.000000E+30   -1.000000E+30   -1.000000E+30   -1.000000E+30     133.644         133.675         133.704         133.734         133.763    
          133.792         133.821         133.850         133.879         133.909         133.939         133.971         134.004         134.039         134.075    
          134.117       -1.000000E+30   -1.000000E+30   -1.000000E+30   -1.000000E+30   -1.000000E+30   -1.000000E+30   -1.000000E+30   -1.000000E+30     134.664    
          134.706         134.737         134.764         134.788         134.799         134.782         134.792         134.812         134.821         134.804    
          134.816         134.837         134.861         134.886         134.910         134.932         134.953         134.972         134.988         135.004    
          135.020         135.033         135.043         135.049         135.041         135.047         135.055         135.063       -1.000000E+30   -1.000000E+30
        -1.000000E+30   -1.000000E+30   -1.000000E+30   -1.000000E+30   -1.000000E+30   -1.000000E+30   -1.000000E+30   -1.000000E+30   -1.000000E+30   -1.000000E+30
        -1.000000E+30   -1.000000E+30   -1.000000E+30   -1.000000E+30   -1.000000E+30     133.653         133.685         133.716         133.747         133.777    
          133.807         133.837         133.867         133.898         133.929         133.962         133.996         134.031         134.071       -1.000000E+30
        -1.000000E+30   -1.000000E+30   -1.000000E+30   -1.000000E+30   -1.000000E+30   -1.000000E+30   -1.000000E+30   -1.000000E+30   -1.000000E+30     134.676    
          134.722         134.749         134.776         134.797         134.810         134.792         134.805         134.826         134.851         134.876    
          134.902         134.925         134.947         134.966         134.984         135.000         135.016         135.028         135.033         135.026    
          135.032         135.039         135.044         135.038         135.043         135.051         135.060       -1.000000E+30   -1.000000E+30   -1.000000E+30
        -1.000000E+30   -1.000000E+30   -1.000000E+30   -1.000000E+30   -1.000000E+30   -1.000000E+30   -1.000000E+30   -1.000000E+30   -1.000000E+30   -1.000000E+30
        -1.000000E+30   -1.000000E+30   -1.000000E+30   -1.000000E+30     133.661         133.695         133.728         133.760         133.792         133.824    
          133.855         133.887         133.920         133.953         133.988         134.030       -1.000000E+30   -1.000000E+30   -1.000000E+30   -1.000000E+30
        -1.000000E+30   -1.000000E+30   -1.000000E+30   -1.000000E+30   -1.000000E+30   -1.000000E+30   -1.000000E+30   -1.000000E+30   -1.000000E+30     134.733    
          134.762         134.784         134.797         134.779         134.790         134.811         134.822         134.804         134.818         134.841    
          134.867         134.894         134.919         134.942         134.959         134.967         134.957         134.966         134.978         134.985    
          134.976         134.984         134.995         135.001         134.993         135.000         135.010         135.015         135.008         135.014    
          135.023         135.030         135.021         135.029         135.038         135.048       -1.000000E+30   -1.000000E+30   -1.000000E+30   -1.000000E+30
        -1.000000E+30   -1.000000E+30   -1.000000E+30   -1.000000E+30   -1.000000E+30   -1.000000E+30   -1.000000E+30   -1.000000E+30   -1.000000E+30   -1.000000E+30
        -1.000000E+30   -1.000000E+30   -1.000000E+30   -1.000000E+30     133.668         133.704         133.739         133.774         133.808         133.843    
          133.876         133.911         133.946         133.994       -1.000000E+30   -1.000000E+30   -1.000000E+30   -1.000000E+30   -1.000000E+30   -1.000000E+30
        -1.000000E+30   -1.000000E+30   -1.000000E+30   -1.000000E+30   -1.000000E+30   -1.000000E+30   -1.000000E+30   -1.000000E+30   -1.000000E+30     134.745    
          134.770         134.798         134.812         134.794         134.806         134.827         134.838         134.821         134.834         134.859    
          134.887         134.910         134.920         134.907         134.918         134.934         134.943         134.931         134.941         134.954    
          134.964         134.953         134.963         134.977         134.993       -1.000000E+30   -1.000000E+30   -1.000000E+30   -1.000000E+30   -1.000000E+30
        -1.000000E+30   -1.000000E+30   -1.000000E+30   -1.000000E+30   -1.000000E+30   -1.000000E+30   -1.000000E+30   -1.000000E+30   -1.000000E+30   -1.000000E+30
        -1.000000E+30   -1.000000E+30   -1.000000E+30   -1.000000E+30   -1.000000E+30     133.672         133.712         133.751         133.790         133.828    
          133.865         133.903         133.956       -1.000000E+30   -1.000000E+30   -1.000000E+30   -1.000000E+30   -1.000000E+30   -1.000000E+30   -1.000000E+30
        -1.000000E+30   -1.000000E+30   -1.000000E+30   -1.000000E+30   -1.000000E+30   -1.000000E+30   -1.000000E+30   -1.000000E+30   -1.000000E+30   -1.000000E+30
          134.749         134.779         134.809         134.823         134.803         134.815       -1.000000E+30     134.854       -1.000000E+30     134.849    
          134.876         134.884         134.870         134.880         134.901         134.914         134.898         134.911       -1.000000E+30   -1.000000E+30
        -1.000000E+30   -1.000000E+30   -1.000000E+30   -1.000000E+30   -1.000000E+30   -1.000000E+30   -1.000000E+30   -1.000000E+30   -1.000000E+30   -1.000000E+30
        -1.000000E+30   -1.000000E+30   -1.000000E+30   -1.000000E+30   -1.000000E+30   -1.000000E+30   -1.000000E+30   -1.000000E+30   -1.000000E+30   -1.000000E+30
          133.672         133.719         133.766         133.812         133.856         133.911       -1.000000E+30   -1.000000E+30   -1.000000E+30   -1.000000E+30
        -1.000000E+30   -1.000000E+30   -1.000000E+30   -1.000000E+30   -1.000000E+30   -1.000000E+30   -1.000000E+30   -1.000000E+30   -1.000000E+30   -1.000000E+30
        -1.000000E+30   -1.000000E+30   -1.000000E+30   -1.000000E+30   -1.000000E+30   -1.000000E+30   -1.000000E+30   -1.000000E+30   -1.000000E+30   -1.000000E+30
        -1.000000E+30   -1.000000E+30   -1.000000E+30   -1.000000E+30   -1.000000E+30   -1.000000E+30   -1.000000E+30   -1.000000E+30   -1.000000E+30   -1.000000E+30
        -1.000000E+30   -1.000000E+30   -1.000000E+30   -1.000000E+30   -1.000000E+30   -1.000000E+30   -1.000000E+30   -1.000000E+30   -1.000000E+30   -1.000000E+30
          133.667         133.729         133.791         133.859       -1.000000E+30   -1.000000E+30   -1.000000E+30   -1.000000E+30   -1.000000E+30   -1.000000E+30
        -1.000000E+30   -1.000000E+30   -1.000000E+30   -1.000000E+30   -1.000000E+30   -1.000000E+30   -1.000000E+30   -1.000000E+30   -1.000000E+30   -1.000000E+30
        -1.000000E+30   -1.000000E+30   -1.000000E+30   -1.000000E+30   -1.000000E+30   -1.000000E+30   -1.000000E+30   -1.000000E+30   -1.000000E+30   -1.000000E+30
        -1.000000E+30   -1.000000E+30   -1.000000E+30   -1.000000E+30   -1.000000E+30   -1.000000E+30   -1.000000E+30   -1.000000E+30   -1.000000E+30   -1.000000E+30
        -1.000000E+30   -1.000000E+30   -1.000000E+30   -1.000000E+30   -1.000000E+30   -1.000000E+30   -1.000000E+30     133.651         133.768         133.877    
        -1.000000E+30   -1.000000E+30   -1.000000E+30   -1.000000E+30   -1.000000E+30   -1.000000E+30   -1.000000E+30   -1.000000E+30   -1.000000E+30   -1.000000E+30
        -1.000000E+30   -1.000000E+30   -1.000000E+30   -1.000000E+30   -1.000000E+30   -1.000000E+30   -1.000000E+30   -1.000000E+30   -1.000000E+30   -1.000000E+30
        -1.000000E+30   -1.000000E+30   -1.000000E+30   -1.000000E+30   -1.000000E+30   -1.000000E+30   -1.000000E+30   -1.000000E+30   -1.000000E+30   -1.000000E+30
        -1.000000E+30   -1.000000E+30   -1.000000E+30   -1.000000E+30   -1.000000E+30   -1.000000E+30   -1.000000E+30   -1.000000E+30   -1.000000E+30   -1.000000E+30
          133.692       -1.000000E+30   -1.000000E+30   -1.000000E+30   -1.000000E+30   -1.000000E+30   -1.000000E+30   -1.000000E+30   -1.000000E+30   -1.000000E+30
        -1.000000E+30   -1.000000E+30   -1.000000E+30   -1.000000E+30   -1.000000E+30   -1.000000E+30   -1.000000E+30   -1.000000E+30   -1.000000E+30   -1.000000E+30
        -1.000000E+30   -1.000000E+30   -1.000000E+30   -1.000000E+30   -1.000000E+30   -1.000000E+30   -1.000000E+30   -1.000000E+30   -1.000000E+30   -1.000000E+30
        -1.000000E+30   -1.000000E+30   -1.000000E+30   -1.000000E+30   -1.000000E+30   -1.000000E+30   -1.000000E+30   -1.000000E+30   -1.000000E+30   -1.000000E+30
        -1.000000E+30   -1.000000E+30   -1.000000E+30   -1.000000E+30   -1.000000E+30   -1.000000E+30   -1.000000E+30   -1.000000E+30   -1.000000E+30   -1.000000E+30
        -1.000000E+30   -1.000000E+30   -1.000000E+30   -1.000000E+30   -1.000000E+30   -1.000000E+30   -1.000000E+30   -1.000000E+30   -1.000000E+30   -1.000000E+30
        -1.000000E+30   -1.000000E+30   -1.000000E+30   -1.000000E+30   -1.000000E+30   -1.000000E+30   -1.000000E+30   -1.000000E+30   -1.000000E+30   -1.000000E+30
        -1.000000E+30   -1.000000E+30   -1.000000E+30   -1.000000E+30   -1.000000E+30
1
  HEAD IN LAYER   2 AT END OF TIME STEP  48 IN STRESS PERIOD    2
  ---------------------------------------------------------------------------

                1               2               3               4               5               6               7               8               9              10
               11              12              13              14              15              16              17              18              19              20
               21              22              23              24              25              26              27              28              29              30
               31              32              33              34              35              36              37              38              39              40
               41              42              43              44              45              46              47              48              49              50
               51              52              53              54              55              56              57              58              59              60
               61              62              63              64              65              66              67              68              69              70
               71              72              73              74              75              76              77              78              79              80
               81              82              83              84              85              86              87              88              89              90
               91              92              93              94              95              96              97              98              99             100
              101             102             103             104             105             106             107             108             109             110
              111             112             113             114             115             116             117             118             119             120
              121             122             123             124             125             126             127             128             129             130
              131             132             133             134             135             136             137             138             139             140
              141             142             143             144             145             146             147             148             149             150
              151             152             153             154             155             156             157             158             159             160
              161             162             163             164             165             166             167             168             169             170
              171             172             173             174             175             176             177             178             179             180
              181             182             183             184             185             186             187             188             189             190
              191             192             193             194             195             196             197             198             199             200
              201             202             203             204             205             206             207             208             209             210
              211             212             213             214             215             216             217             218             219             220
              221             222             223             224             225             226             227             228             229             230
              231             232             233             234             235             236             237             238             239             240
              241             242             243             244             245             246             247             248             249             250
              251             252             253             254             255             256             257             258             259             260
              261             262             263             264             265             266             267             268             269             270
              271             272             273             274             275             276             277             278             279             280
              281             282             283             284             285             286             287             288             289             290
              291             292             293             294             295             296             297             298             299             300
              301             302             303             304             305             306             307             308             309             310
              311             312             313             314             315             316             317             318             319             320
              321             322             323             324             325             326             327             328             329             330
              331             332             333             334             335             336             337             338             339             340
              341             342             343             344             345             346             347             348             349             350
              351             352             353             354             355             356             357             358             359             360
              361             362             363             364             365             366             367             368             369             370
              371             372             373             374             375             376             377             378             379             380
              381             382             383             384             385             386             387             388             389             390
              391             392             393             394             395             396             397             398             399             400
              401             402             403             404             405             406             407             408             409             410
              411             412             413             414             415             416             417             418             419             420
              421             422             423             424             425             426             427             428             429             430
              431             432             433             434             435             436             437             438             439             440
              441             442             443             444             445             446             447             448             449             450
              451             452             453             454             455             456             457             458             459             460
              461             462             463             464             465             466             467             468             469             470
              471             472             473             474             475             476             477             478             479             480
              481             482             483             484             485             486             487             488             489             490
              491             492             493             494             495             496             497             498             499             500
              501             502             503             504             505             506             507             508             509             510
              511             512             513             514             515             516             517             518             519             520
              521             522             523             524             525             526             527             528             529             530
              531             532             533             534             535             536             537             538             539             540
              541             542             543             544             545             546             547             548             549             550
              551             552             553             554             555             556             557             558             559             560
              561             562             563             564             565             566             567             568             569             570
              571             572             573             574             575             576             577             578             579             580
              581             582             583             584             585             586             587             588             589             590
              591             592             593             594             595             596             597             598             599             600
              601             602             603             604             605             606             607             608             609             610
              611             612             613             614             615             616             617             618             619             620
              621             622             623             624             625             626             627             628             629             630
              631             632             633             634             635             636             637             638             639             640
              641             642             643             644             645             646             647             648             649             650
              651             652             653             654             655             656             657             658             659             660
              661             662             663             664             665             666             667             668             669             670
              671             672             673             674             675             676             677             678             679             680
              681             682             683             684             685             686             687             688             689             690
              691             692             693             694             695             696             697             698             699             700
              701             702             703             704             705             706             707             708             709             710
              711             712             713             714             715             716             717             718             719             720
              721             722             723             724             725             726             727             728             729             730
              731             732             733             734             735             736             737             738             739             740
              741             742             743             744             745             746             747             748             749             750
              751             752             753             754             755             756             757             758             759             760
              761             762             763             764             765             766             767             768             769             770
              771             772             773             774             775             776             777             778             779             780
              781             782             783             784             785             786             787             788             789             790
              791             792             793             794             795             796             797             798             799             800
              801             802             803             804             805             806             807             808             809             810
              811             812             813             814             815             816             817             818             819             820
              821             822             823             824             825             826             827             828             829             830
              831             832             833             834             835             836             837             838             839             840
              841             842             843             844             845             846             847             848             849             850
              851             852             853             854             855             856             857             858             859             860
              861             862             863             864             865             866             867             868             869             870
              871             872             873             874             875             876             877             878             879             880
              881             882             883             884             885             886             887             888             889             890
              891             892             893             894             895             896             897             898             899             900
              901             902             903             904             905             906             907             908             909             910
              911             912             913             914             915             916             917             918             919             920
              921             922             923             924             925             926             927             928             929             930
              931             932             933             934             935             936             937             938             939             940
              941             942             943             944             945             946             947             948             949             950
              951             952             953             954             955             956             957             958             959             960
              961             962             963             964             965             966             967             968             969             970
              971             972             973             974             975             976             977             978             979             980
              981             982             983             984             985             986             987             988             989             990
              991             992             993             994             995             996             997             998             999            1000
             1001            1002            1003            1004            1005            1006            1007            1008            1009            1010
             1011            1012            1013            1014            1015            1016            1017            1018            1019            1020
             1021            1022            1023            1024            1025            1026            1027            1028            1029            1030
             1031            1032            1033            1034            1035            1036            1037            1038            1039            1040
             1041            1042            1043            1044            1045            1046            1047            1048            1049            1050
             1051            1052            1053            1054            1055            1056            1057            1058            1059            1060
             1061            1062            1063            1064            1065            1066            1067            1068            1069            1070
             1071            1072            1073            1074            1075            1076            1077            1078            1079            1080
             1081            1082            1083            1084            1085            1086            1087            1088            1089            1090
             1091            1092            1093            1094            1095            1096            1097            1098            1099            1100
             1101            1102            1103            1104            1105            1106            1107            1108            1109            1110
             1111            1112            1113            1114            1115            1116            1117            1118            1119            1120
             1121            1122            1123            1124            1125            1126            1127            1128            1129            1130
             1131            1132            1133            1134            1135            1136            1137            1138            1139            1140
             1141            1142            1143            1144            1145            1146            1147            1148            1149            1150
             1151            1152            1153            1154            1155            1156            1157            1158            1159            1160
             1161            1162            1163            1164            1165            1166            1167            1168            1169            1170
             1171            1172            1173            1174            1175            1176            1177            1178            1179            1180
             1181            1182            1183            1184            1185            1186            1187            1188            1189            1190
             1191            1192            1193            1194            1195            1196            1197            1198            1199            1200
             1201            1202            1203            1204            1205            1206            1207            1208            1209            1210
             1211            1212            1213            1214            1215            1216            1217            1218            1219            1220
             1221            1222            1223            1224            1225            1226            1227            1228            1229            1230
             1231            1232            1233            1234            1235            1236            1237            1238            1239            1240
             1241            1242            1243            1244            1245            1246            1247            1248            1249            1250
             1251            1252            1253            1254            1255            1256            1257            1258            1259            1260
             1261            1262            1263            1264            1265            1266            1267            1268            1269            1270
             1271            1272            1273            1274            1275            1276            1277            1278            1279            1280
             1281            1282            1283            1284            1285            1286            1287            1288            1289            1290
             1291            1292            1293            1294            1295            1296            1297            1298            1299            1300
             1301            1302            1303            1304            1305            1306            1307            1308            1309            1310
             1311            1312            1313            1314            1315            1316            1317            1318            1319            1320
             1321            1322            1323            1324            1325            1326            1327            1328            1329            1330
             1331            1332            1333            1334            1335            1336            1337            1338            1339            1340
             1341            1342            1343            1344            1345            1346            1347            1348            1349            1350
             1351            1352            1353            1354            1355            1356            1357            1358            1359            1360
             1361            1362            1363            1364            1365            1366            1367            1368            1369            1370
             1371            1372            1373            1374            1375            1376            1377            1378            1379            1380
             1381            1382            1383            1384            1385            1386            1387            1388            1389            1390
             1391            1392            1393            1394            1395            1396            1397            1398            1399            1400
             1401            1402            1403            1404            1405            1406            1407            1408            1409            1410
             1411            1412            1413            1414            1415            1416            1417            1418            1419            1420
             1421            1422            1423            1424            1425            1426            1427            1428            1429            1430
             1431            1432            1433            1434            1435            1436            1437            1438            1439            1440
             1441            1442            1443            1444            1445            1446            1447            1448            1449            1450
             1451            1452            1453            1454            1455            1456            1457            1458            1459            1460
             1461            1462            1463            1464            1465            1466            1467            1468            1469            1470
             1471            1472            1473            1474            1475            1476            1477            1478            1479            1480
             1481            1482            1483            1484            1485            1486            1487            1488            1489            1490
             1491            1492            1493            1494            1495            1496            1497            1498            1499            1500
             1501            1502            1503            1504            1505            1506            1507            1508            1509            1510
             1511            1512            1513            1514            1515            1516            1517            1518            1519            1520
             1521            1522            1523            1524            1525            1526            1527            1528            1529            1530
             1531            1532            1533            1534            1535            1536            1537            1538            1539            1540
             1541            1542            1543            1544            1545            1546            1547            1548            1549            1550
             1551            1552            1553            1554            1555            1556            1557            1558            1559            1560
             1561            1562            1563            1564            1565            1566            1567            1568            1569            1570
             1571            1572            1573            1574            1575            1576            1577            1578            1579            1580
             1581            1582            1583            1584            1585            1586            1587            1588            1589            1590
             1591            1592            1593            1594            1595            1596            1597            1598            1599            1600
             1601            1602            1603            1604            1605            1606            1607            1608            1609            1610
             1611            1612            1613            1614            1615            1616            1617            1618            1619            1620
             1621            1622            1623            1624            1625            1626            1627            1628            1629            1630
             1631            1632            1633            1634            1635            1636            1637            1638            1639            1640
             1641            1642            1643            1644            1645            1646            1647            1648            1649            1650
             1651            1652            1653            1654            1655            1656            1657            1658            1659            1660
             1661            1662            1663            1664            1665            1666            1667            1668            1669            1670
             1671            1672            1673            1674            1675            1676            1677            1678            1679            1680
             1681            1682            1683            1684            1685            1686            1687            1688            1689            1690
             1691            1692            1693            1694            1695            1696            1697            1698            1699            1700
             1701            1702            1703            1704            1705            1706            1707            1708            1709            1710
             1711            1712            1713            1714            1715            1716            1717            1718            1719            1720
             1721            1722            1723            1724            1725            1726            1727            1728            1729            1730
             1731            1732            1733            1734            1735            1736            1737            1738            1739            1740
             1741            1742            1743            1744            1745            1746            1747            1748            1749            1750
             1751            1752            1753            1754            1755            1756            1757            1758            1759            1760
             1761            1762            1763            1764            1765            1766            1767            1768            1769            1770
             1771            1772            1773            1774            1775            1776            1777            1778            1779            1780
             1781            1782            1783            1784            1785            1786            1787            1788            1789            1790
             1791            1792            1793            1794            1795            1796            1797            1798            1799            1800
             1801            1802            1803            1804            1805            1806            1807            1808            1809            1810
             1811            1812            1813            1814            1815            1816            1817            1818            1819            1820
             1821            1822            1823            1824            1825            1826            1827            1828            1829            1830
             1831            1832            1833            1834            1835            1836            1837            1838            1839            1840
             1841            1842            1843            1844            1845            1846            1847            1848            1849            1850
             1851            1852            1853            1854            1855            1856            1857            1858            1859            1860
             1861            1862            1863            1864            1865            1866            1867            1868            1869            1870
             1871            1872            1873            1874            1875            1876            1877            1878            1879            1880
             1881            1882            1883            1884            1885            1886            1887            1888            1889            1890
             1891            1892            1893            1894            1895            1896            1897            1898            1899            1900
             1901            1902            1903            1904            1905            1906            1907            1908            1909            1910
             1911            1912            1913            1914            1915            1916            1917            1918            1919            1920
             1921            1922            1923            1924            1925            1926            1927            1928            1929            1930
             1931            1932            1933            1934            1935            1936            1937            1938            1939            1940
             1941            1942            1943            1944            1945            1946            1947            1948            1949            1950
             1951            1952            1953            1954            1955            1956            1957            1958            1959            1960
             1961            1962            1963            1964            1965            1966            1967            1968            1969            1970
             1971            1972            1973            1974            1975            1976            1977            1978            1979            1980
             1981            1982            1983            1984            1985            1986            1987            1988            1989            1990
             1991            1992            1993            1994            1995            1996            1997            1998            1999            2000
             2001            2002            2003            2004            2005            2006            2007            2008            2009            2010
             2011            2012            2013            2014            2015            2016            2017            2018            2019            2020
             2021            2022            2023            2024            2025            2026            2027            2028            2029            2030
             2031            2032            2033            2034            2035            2036            2037            2038            2039            2040
             2041            2042            2043            2044            2045            2046            2047            2048            2049            2050
             2051            2052            2053            2054            2055            2056            2057            2058            2059            2060
             2061            2062            2063            2064            2065            2066            2067            2068            2069            2070
             2071            2072            2073            2074            2075            2076            2077            2078            2079            2080
             2081            2082            2083            2084            2085            2086            2087            2088            2089            2090
             2091            2092            2093            2094            2095            2096            2097            2098            2099            2100
             2101            2102            2103            2104            2105            2106            2107            2108            2109            2110
             2111            2112            2113            2114            2115            2116            2117            2118            2119            2120
             2121            2122            2123            2124            2125            2126            2127            2128            2129            2130
             2131            2132            2133            2134            2135            2136            2137            2138            2139            2140
             2141            2142            2143            2144            2145            2146            2147            2148            2149            2150
             2151            2152            2153            2154            2155            2156            2157            2158            2159            2160
             2161            2162            2163            2164            2165            2166            2167            2168            2169            2170
             2171            2172            2173            2174            2175            2176            2177            2178            2179            2180
             2181            2182            2183            2184            2185            2186            2187            2188            2189            2190
             2191            2192            2193            2194            2195            2196            2197            2198            2199            2200
             2201            2202            2203            2204            2205            2206            2207            2208            2209            2210
             2211            2212            2213            2214            2215            2216            2217            2218            2219            2220
             2221            2222            2223            2224            2225            2226            2227            2228            2229            2230
             2231            2232            2233            2234            2235            2236            2237            2238            2239            2240
             2241            2242            2243            2244            2245            2246            2247            2248            2249            2250
             2251            2252            2253            2254            2255            2256            2257            2258            2259            2260
             2261            2262            2263            2264            2265            2266            2267            2268            2269            2270
             2271            2272            2273            2274            2275            2276            2277            2278            2279            2280
             2281            2282            2283            2284            2285            2286            2287            2288            2289            2290
             2291            2292            2293            2294            2295            2296            2297            2298            2299            2300
             2301            2302            2303            2304            2305            2306            2307            2308            2309            2310
             2311            2312            2313            2314            2315            2316            2317            2318            2319            2320
             2321            2322            2323            2324            2325            2326            2327            2328            2329            2330
             2331            2332            2333            2334            2335            2336            2337            2338            2339            2340
             2341            2342            2343            2344            2345            2346            2347            2348            2349            2350
             2351            2352            2353            2354            2355            2356            2357            2358            2359            2360
             2361            2362            2363            2364            2365            2366            2367            2368            2369            2370
             2371            2372            2373            2374            2375            2376            2377            2378            2379            2380
             2381            2382            2383            2384            2385            2386            2387            2388            2389            2390
             2391            2392            2393            2394            2395            2396            2397            2398            2399            2400
             2401            2402            2403            2404            2405            2406            2407            2408            2409            2410
             2411            2412            2413            2414            2415            2416            2417            2418            2419            2420
             2421            2422            2423            2424            2425            2426            2427            2428            2429            2430
             2431            2432            2433            2434            2435            2436            2437            2438            2439            2440
             2441            2442            2443            2444            2445            2446            2447            2448            2449            2450
             2451            2452            2453            2454            2455            2456            2457            2458            2459            2460
             2461            2462            2463            2464            2465            2466            2467            2468            2469            2470
             2471            2472            2473            2474            2475            2476            2477            2478            2479            2480
             2481            2482            2483            2484            2485            2486            2487            2488            2489            2490
             2491            2492            2493            2494            2495            2496            2497            2498            2499            2500
             2501            2502            2503            2504            2505            2506            2507            2508            2509            2510
             2511            2512            2513            2514            2515            2516            2517            2518            2519            2520
             2521            2522            2523            2524            2525            2526            2527            2528            2529            2530
             2531            2532            2533            2534            2535            2536            2537            2538            2539            2540
             2541            2542            2543            2544            2545            2546            2547            2548            2549            2550
             2551            2552            2553            2554            2555            2556            2557            2558            2559            2560
             2561            2562            2563            2564            2565            2566            2567            2568            2569            2570
             2571            2572            2573            2574            2575            2576            2577            2578            2579            2580
             2581            2582            2583            2584            2585            2586            2587            2588            2589            2590
             2591            2592            2593            2594            2595            2596            2597            2598            2599            2600
             2601            2602            2603            2604            2605            2606            2607            2608            2609            2610
             2611            2612            2613            2614            2615            2616            2617            2618            2619            2620
             2621            2622            2623            2624            2625            2626            2627            2628            2629            2630
             2631            2632            2633            2634            2635            2636            2637            2638            2639            2640
             2641            2642            2643            2644            2645            2646            2647            2648            2649            2650
             2651            2652            2653            2654            2655            2656            2657            2658            2659            2660
             2661            2662            2663            2664            2665            2666            2667            2668            2669            2670
             2671            2672            2673            2674            2675            2676            2677            2678            2679            2680
             2681            2682            2683            2684            2685            2686            2687            2688            2689            2690
             2691            2692            2693            2694            2695            2696            2697            2698            2699            2700
             2701            2702            2703            2704            2705            2706            2707            2708            2709            2710
             2711            2712            2713            2714            2715            2716            2717            2718            2719            2720
             2721            2722            2723            2724            2725            2726            2727            2728            2729            2730
             2731            2732            2733            2734            2735            2736            2737            2738            2739            2740
             2741            2742            2743            2744            2745            2746            2747            2748            2749            2750
             2751            2752            2753            2754            2755            2756            2757            2758            2759            2760
             2761            2762            2763            2764            2765            2766            2767            2768            2769            2770
             2771            2772            2773            2774            2775            2776            2777            2778            2779            2780
             2781            2782            2783            2784            2785            2786            2787            2788            2789            2790
             2791            2792            2793            2794            2795            2796            2797            2798            2799            2800
             2801            2802            2803            2804            2805            2806            2807            2808            2809            2810
             2811            2812            2813            2814            2815            2816            2817            2818            2819            2820
             2821            2822            2823            2824            2825            2826            2827            2828            2829            2830
             2831            2832            2833            2834            2835            2836            2837            2838            2839            2840
             2841            2842            2843            2844            2845            2846            2847            2848            2849            2850
             2851            2852            2853            2854            2855            2856            2857            2858            2859            2860
             2861            2862            2863            2864            2865            2866            2867            2868            2869            2870
             2871            2872            2873            2874            2875            2876            2877            2878            2879            2880
             2881            2882            2883            2884            2885            2886            2887            2888            2889            2890
             2891            2892            2893            2894            2895            2896            2897            2898            2899            2900
             2901            2902            2903            2904            2905            2906            2907            2908            2909            2910
             2911            2912            2913            2914            2915            2916            2917            2918            2919            2920
             2921            2922            2923            2924            2925            2926            2927            2928            2929            2930
             2931            2932            2933            2934            2935            2936            2937            2938            2939            2940
             2941            2942            2943            2944            2945            2946            2947            2948            2949            2950
             2951            2952            2953            2954            2955            2956            2957            2958            2959            2960
             2961            2962            2963            2964            2965            2966            2967            2968            2969            2970
             2971            2972            2973            2974            2975            2976            2977            2978            2979            2980
             2981            2982            2983            2984            2985            2986            2987            2988            2989            2990
             2991            2992            2993            2994            2995            2996            2997            2998            2999            3000
             3001            3002            3003            3004            3005            3006            3007            3008            3009            3010
             3011            3012            3013            3014            3015            3016            3017            3018            3019            3020
             3021            3022            3023            3024            3025            3026            3027            3028            3029            3030
             3031            3032            3033            3034            3035            3036            3037            3038            3039            3040
             3041            3042            3043            3044            3045            3046            3047            3048            3049            3050
             3051            3052            3053            3054            3055            3056            3057            3058            3059            3060
             3061            3062            3063            3064            3065            3066            3067            3068            3069            3070
             3071            3072            3073            3074            3075            3076            3077            3078            3079            3080
             3081            3082            3083            3084            3085            3086            3087            3088            3089            3090
             3091            3092            3093            3094            3095            3096            3097            3098            3099            3100
             3101            3102            3103            3104            3105            3106            3107            3108            3109            3110
             3111            3112            3113            3114            3115            3116            3117            3118            3119            3120
             3121            3122            3123            3124            3125            3126            3127            3128            3129            3130
             3131            3132            3133            3134            3135
 ................................................................................................................................................................
   1      133.639         133.630         133.608         133.575         133.555         133.547         133.547         133.538         133.547         133.585    
          133.640         133.701         133.765         133.829         133.893         133.956         134.016         134.073         134.128         134.183    
          134.234         134.279         134.311         133.610         133.617         133.611         133.592         133.562         133.539         133.527    
          133.535         133.524         133.523         133.529         133.517         133.520         133.550         133.602         133.662         133.727    
          133.793         133.860         133.926         133.990         134.051         134.110         134.168         134.224         134.278         134.328    
          134.377         133.590         133.597         133.600         133.594         133.578         133.555         133.530         133.517         133.516    
          133.518         133.516         133.524         133.535         133.518         133.525         133.559         133.578         133.542         133.564    
          133.613         133.677         133.746         133.816         133.887         133.956         134.022         134.086         134.148         134.209    
          134.270         134.330         134.388         134.435         133.577         133.582         133.587         133.587         133.582         133.571    
          133.554         133.536         133.523         133.518         133.530         133.546         133.524         133.534         133.569         133.589    
          133.551         133.575         133.627         133.696         133.770         133.846         133.921         133.992         134.060         134.126    
          134.191         134.257         134.322         134.387         134.446         134.493         133.565         133.570         133.575         133.578    
          133.579         133.576         133.568         133.557         133.545         133.534         133.527         133.527         133.540         133.558    
          133.536         133.547         133.584         133.606         133.567         133.594         133.650         133.727         133.809         133.888    
          133.962         134.033         134.102         134.171         134.240         134.309         134.379         134.447         134.508         134.559    
          133.552         133.558         133.564         133.569         133.573         133.574         133.573         133.569         133.563         133.555    
          133.548         133.543         133.540         133.544         133.559         133.579         133.558         133.572         133.609         133.637    
          133.596         133.627         133.692         133.779         133.861         133.937         134.008         134.077         134.147         134.219    
          134.293         134.368         134.443         134.515         134.582         134.641         133.538         133.545         133.552         133.559    
          133.564         133.569         133.572         133.573         133.572         133.570         133.567         133.564         133.561         133.561    
          133.564         133.575         133.594         133.620         133.601         133.620         133.659         133.695         133.655         133.695    
          133.763         133.844         133.916         133.984         134.051         134.122         134.196         134.273         134.353         134.434    
          134.516         134.597         134.675         134.746         133.521         133.530         133.539         133.547         133.554         133.561    
          133.567         133.571         133.575         133.577         133.578         133.579         133.580         133.582         133.586         133.593    
          133.606         133.633         133.664         133.702         133.680         133.712         133.748         133.782         133.754         133.789    
          133.839         133.901         133.961         134.024         134.093         134.168         134.249         134.334         134.422         134.512    
          134.604         134.699         134.796         134.893         133.504         133.513         133.523         133.533         133.542         133.551    
          133.559         133.566         133.572         133.577         133.582         133.587         133.591         133.596         133.602         133.610    
          133.623         133.641         133.671         133.719         133.763         133.795         133.770         133.796         133.827         133.850    
          133.827         133.848         133.880         133.902         133.876         133.896         133.932         133.955         133.922         133.948    
          133.996         134.061         134.137         134.222         134.312         134.405         134.502         134.603         134.711         134.830    
          134.966         135.144         135.293         135.417         135.522         135.614         135.694         135.764         135.827         135.885    
          135.938         135.986         136.030         136.069         136.103         136.131         136.149         136.154         136.139         136.097    
          136.013         135.859         135.758         135.686         135.632         135.590         135.557         135.529         135.506         135.486    
          135.469         135.454         135.441         135.429         135.418         135.408         135.402         133.501         133.508         133.518    
          133.529         133.539         133.548         133.557         133.566         133.574         133.581         133.588         133.595         133.603    
          133.611         133.621         133.633         133.649         133.671         133.701         133.742         133.790         133.837         133.881    
          133.916         133.939         133.914         133.932         133.966         133.987         133.956         133.976         134.021         134.048    
          134.005         134.037         134.103         134.192         134.286         134.383         134.484         134.591         134.706         134.831    
          134.967         135.114         135.251         135.369         135.472         135.561         135.640         135.710         135.773         135.828    
          135.879         135.924         135.965         135.999         136.028         136.048         136.058         136.053         136.027         135.972    
          135.901         135.810         135.732         135.670         135.621         135.582         135.551         135.524         135.502         135.482    
          135.465         135.451         135.438         135.427         135.416         135.405         135.396         135.390         133.498         133.505    
          133.515         133.525         133.536         133.547         133.557         133.567         133.576         133.585         133.594         133.604    
          133.614         133.625         133.637         133.653         133.671         133.695         133.724         133.760         133.800         133.840    
          133.880         133.919         133.959         133.996         134.025         133.993         134.020         134.075         134.163         134.259    
          134.357         134.460         134.569         134.685         134.809         134.937         135.067         135.192         135.303         135.401    
          135.488         135.564         135.632         135.693         135.747         135.795         135.837         135.874         135.904         135.927    
          135.943         135.947         135.937         135.908         135.866         135.812         135.751         135.693         135.643         135.601    
          135.567         135.539         135.515         135.493         135.475         135.459         135.445         135.433         135.422         135.411    
          135.399         135.390         135.382         135.374         133.495         133.502         133.512         133.523         133.534         133.546    
          133.557         133.568         133.578         133.589         133.600         133.611         133.623         133.637         133.652         133.669    
          133.689         133.713         133.741         133.774         133.809         133.846         133.883         133.921         133.960         133.993    
          134.017         133.995         134.016         134.048         134.077         134.045         134.077         134.139         134.231         134.329    
          134.431         134.539         134.653         134.773         134.894         135.013         135.127         135.231         135.324         135.407    
          135.481         135.547         135.606         135.657         135.703         135.742         135.775         135.802         135.823         135.835    
          135.838         135.828         135.806         135.775         135.735         135.691         135.648         135.609         135.576         135.547    
          135.522         135.501         135.482         135.465         135.450         135.437         135.425         135.415         135.404         135.391    
          135.382         135.373         135.363         135.354         133.493         133.500         133.510         133.521         133.533         133.545    
          133.557         133.569         133.581         133.593         133.606         133.619         133.632         133.647         133.664         133.682    
          133.703         133.727         133.755         133.785         133.818         133.853         133.889         133.926         133.965         134.009    
          134.047         134.076         134.049         134.073         134.112         134.143         134.106         134.141         134.206         134.298    
          134.398         134.503         134.614         134.730         134.845         134.956         135.062         135.160         135.248         135.327    
          135.398         135.461         135.518         135.567         135.610         135.647         135.679         135.703         135.722         135.733    
          135.736         135.730         135.715         135.693         135.665         135.633         135.602         135.573         135.546         135.522    
          135.502         135.483         135.467         135.452         135.439         135.427         135.416         135.405         135.394         135.381    
          135.371         135.362         135.353         135.344         135.335         133.492         133.499         133.509         133.520         133.533    
          133.546         133.558         133.571         133.584         133.597         133.611         133.625         133.640         133.656         133.673    
          133.693         133.714         133.738         133.765         133.795         133.826         133.860         133.895         133.931         133.970    
          134.013         134.062         134.105         134.136         134.104         134.129         134.174         134.205         134.163         134.199    
          134.266         134.360         134.463         134.571         134.683         134.794         134.899         135.000         135.092         135.176    
          135.252         135.319         135.380         135.434         135.481         135.523         135.558         135.587         135.611         135.628    
          135.639         135.644         135.641         135.633         135.619         135.600         135.578         135.556         135.534         135.514    
          135.495         135.479         135.463         135.449         135.436         135.424         135.414         135.404         135.394         135.381    
          135.369         135.359         135.350         135.342         135.334         135.327         135.321         133.491         133.497         133.508    
          133.520         133.533         133.546         133.559         133.573         133.587         133.601         133.615         133.630         133.646    
          133.663         133.682         133.702         133.724         133.748         133.774         133.802         133.833         133.866         133.900    
          133.936         133.974         134.016         134.062         134.112         134.157         134.188         134.153         134.177         134.226    
          134.258         134.211         134.248         134.320         134.420         134.527         134.637         134.744         134.845         134.941    
          135.029         135.110         135.182         135.246         135.304         135.356         135.401         135.441         135.475         135.503    
          135.526         135.543         135.554         135.561         135.562         135.559         135.552         135.540         135.526         135.511    
          135.495         135.481         135.467         135.454         135.441         135.429         135.418         135.408         135.399         135.390    
          135.379         135.366         135.354         135.345         135.337         135.330         135.324         135.319         135.314         135.309    
          133.490         133.497         133.507         133.520         133.533         133.547         133.561         133.575         133.589         133.604    
          133.619         133.635         133.652         133.669         133.688         133.709         133.731         133.755         133.781         133.809    
          133.839         133.871         133.905         133.940         133.978         134.018         134.062         134.108         134.157         134.201    
          134.234         134.196         134.221         134.275         134.310         134.258         134.299         134.378         134.484         134.592    
          134.697         134.795         134.887         134.972         135.049         135.119         135.180         135.236         135.285         135.328    
          135.366         135.399         135.426         135.449         135.466         135.479         135.487         135.491         135.492         135.490    
          135.485         135.477         135.468         135.458         135.447         135.437         135.428         135.418         135.408         135.399    
          135.390         135.382         135.373         135.361         135.349         135.339         135.332         135.325         135.319         135.314    
          135.310         135.307         135.305         133.490         133.497         133.507         133.520         133.533         133.547         133.562    
          133.576         133.591         133.607         133.623         133.639         133.656         133.674         133.694         133.714         133.737    
          133.761         133.786         133.814         133.844         133.875         133.909         133.944         133.981         134.021         134.062    
          134.106         134.152         134.200         134.247         134.284         134.243         134.272         134.332         134.372         134.316    
          134.363         134.446         134.552         134.655         134.751         134.839         134.920         134.995         135.062         135.121    
          135.174         135.221         135.263         135.299         135.331         135.357         135.380         135.398         135.412         135.422    
          135.429         135.432         135.435         135.434         135.431         135.427         135.421         135.415         135.408         135.401    
          135.393         135.386         135.378         135.371         135.363         135.353         135.342         135.332         135.325         135.318    
          135.313         135.309         135.305         135.302         135.300         135.298         133.490         133.497         133.507         133.520    
          133.534         133.548         133.562         133.577         133.593         133.609         133.625         133.642         133.660         133.678    
          133.698         133.719         133.741         133.765         133.791         133.818         133.848         133.879         133.912         133.947    
          133.984         134.023         134.064         134.107         134.152         134.199         134.252         134.307         134.351         134.302    
          134.344         134.419         134.520         134.618         134.711         134.797         134.875         134.946         135.011         135.069    
          135.120         135.164         135.204         135.240         135.271         135.297         135.319         135.338         135.353         135.365    
          135.374         135.380         135.384         135.388         135.389         135.388         135.386         135.383         135.379         135.374    
          135.369         135.363         135.357         135.350         135.343         135.333         135.324         135.317         135.311         135.306    
          135.302         135.298         135.296         135.294         135.292         135.291         133.490         133.497         133.508         133.520    
          133.534         133.548         133.563         133.578         133.594         133.610         133.627         133.644         133.662         133.681    
          133.701         133.722         133.745         133.769         133.794         133.822         133.851         133.882         133.914         133.949    
          133.986         134.025         134.066         134.109         134.154         134.202         134.254         134.300         134.337         134.300    
          134.335         134.401         134.496         134.589         134.678         134.760         134.835         134.904         134.966         135.022    
          135.071         135.115         135.153         135.187         135.217         135.243         135.266         135.285         135.301         135.315    
          135.325         135.334         135.340         135.345         135.349         135.352         135.353         135.352         135.351         135.348    
          135.345         135.340         135.335         135.330         135.323         135.315         135.308         135.303         135.298         135.295    
          135.292         135.289         135.287         135.286         135.285         135.284         133.491         133.498         133.509         133.521    
          133.534         133.548         133.563         133.579         133.594         133.611         133.628         133.646         133.664         133.683    
          133.703         133.725         133.747         133.771         133.797         133.824         133.853         133.884         133.916         133.951    
          133.988         134.027         134.068         134.112         134.158         134.207         134.260         134.304         134.336         134.308    
          134.335         134.377         134.412         134.374         134.413         134.480         134.567         134.650         134.729         134.801    
          134.867         134.927         134.981         135.028         135.070         135.107         135.140         135.170         135.196         135.219    
          135.239         135.256         135.271         135.283         135.293         135.301         135.308         135.313         135.318         135.322    
          135.324         135.324         135.323         135.321         135.318         135.315         135.311         135.305         135.299         135.294    
          135.290         135.287         135.285         135.282         135.281         135.279         135.278         135.278         135.278         133.492    
          133.500         133.510         133.522         133.534         133.548         133.563         133.578         133.595         133.611         133.629    
          133.647         133.665         133.684         133.705         133.726         133.749         133.773         133.799         133.826         133.855    
          133.885         133.918         133.952         133.989         134.028         134.070         134.114         134.161         134.210         134.264    
          134.323         134.375         134.412         134.374         134.411         134.470         134.550         134.628         134.703         134.772    
          134.836         134.893         134.944         134.990         135.031         135.066         135.099         135.128         135.154         135.178    
          135.198         135.217         135.232         135.246         135.257         135.267         135.275         135.282         135.288         135.293    
          135.297         135.299         135.300         135.300         135.298         135.296         135.293         135.289         135.286         135.282    
          135.280         135.277         135.276         135.274         135.273         135.272         135.272         135.271         135.271         133.505    
          133.512         133.522         133.534         133.548         133.562         133.578         133.594         133.611         133.628         133.646    
          133.665         133.685         133.705         133.727         133.750         133.774         133.800         133.827         133.856         133.886    
          133.918         133.952         133.989         134.028         134.070         134.114         134.161         134.212         134.265         134.323    
          134.373         134.408         134.371         134.405         134.461         134.536         134.609         134.680         134.747         134.809    
          134.864         134.913         134.957         134.996         135.030         135.061         135.090         135.116         135.140         135.162    
          135.181         135.198         135.213         135.226         135.237         135.246         135.254         135.261         135.267         135.273    
          135.277         135.279         135.280         135.280         135.280         135.278         135.276         135.274         135.272         135.270    
          135.269         135.268         135.267         135.266         135.265         135.265         135.265         135.265         133.515         133.524    
          133.535         133.547         133.561         133.577         133.593         133.609         133.627         133.645         133.665         133.685    
          133.705         133.727         133.750         133.774         133.800         133.827         133.856         133.886         133.918         133.952    
          133.988         134.027         134.069         134.113         134.160         134.209         134.263         134.309         134.334         134.305    
          134.334         134.368         134.401         134.365         134.398         134.451         134.521         134.592         134.661         134.725    
          134.784         134.839         134.886         134.929         134.966         135.000         135.014         134.986         135.001         135.031    
          135.042         135.016         135.031         135.057         135.083         135.107         135.129         135.149         135.167         135.183    
          135.197         135.210         135.221         135.230         135.238         135.245         135.252         135.257         135.260         135.263    
          135.265         135.265         135.265         135.265         135.264         135.263         135.262         135.261         135.261         135.260    
          135.259         135.259         135.259         135.258         135.258         133.527         133.536         133.547         133.560         133.575    
          133.591         133.608         133.625         133.644         133.663         133.683         133.704         133.726         133.750         133.774    
          133.800         133.827         133.855         133.885         133.917         133.951         133.987         134.025         134.066         134.109    
          134.155         134.205         134.258         134.302         134.330         134.300         134.325         134.362         134.393         134.358    
          134.385         134.428         134.455         134.420         134.452         134.506         134.575         134.643         134.706         134.763    
          134.816         134.862         134.904         134.939         134.954         134.927         134.943         134.972         134.988         134.959    
          134.975         135.003         135.017         134.990         135.004         135.031         135.041         135.018         135.031         135.055    
          135.079         135.101         135.121         135.139         135.156         135.172         135.186         135.198         135.208         135.218    
          135.226         135.233         135.239         135.243         135.247         135.250         135.252         135.253         135.254         135.255    
          135.255         135.254         135.254         135.254         135.253         135.253         135.253         135.252         135.252         135.252    
          133.538         133.548         133.560         133.574         133.589         133.606         133.623         133.642         133.661         133.682    
          133.703         133.725         133.748         133.773         133.799         133.826         133.854         133.884         133.915         133.948    
          133.984         134.021         134.061         134.104         134.149         134.197         134.249         134.305         134.364         134.414    
          134.446         134.410         134.437         134.482         134.510         134.474         134.502         134.549         134.578         134.541    
          134.570         134.616         134.644         134.607         134.635         134.679         134.705         134.670         134.696         134.737    
          134.761         134.728         134.752         134.790         134.811         134.781         134.802         134.837         134.856         134.827    
          134.846         134.879         134.895         134.869         134.885         134.915         134.931         134.905         134.920         134.948    
          134.963         134.937         134.952         134.978         134.992         134.967         134.981         135.005         135.017         134.994    
          135.008         135.030         135.054         135.076         135.096         135.115         135.132         135.148         135.163         135.176    
          135.188         135.198         135.208         135.216         135.222         135.228         135.232         135.236         135.239         135.241    
          135.243         135.245         135.246         135.246         135.246         135.247         135.247         135.247         135.246         135.246    
          135.246         135.246         133.551         133.560         133.573         133.587         133.604         133.621         133.639         133.659    
          133.679         133.700         133.723         133.746         133.771         133.797         133.824         133.852         133.881         133.912    
          133.945         133.979         134.016         134.055         134.097         134.141         134.188         134.239         134.293         134.350    
          134.412         134.476         134.543         134.608         134.669         134.727         134.778         134.823         134.863         134.899    
          134.927         134.942         134.920         134.932         134.956         134.970         134.947         134.959         134.983         134.996    
          134.973         134.986         135.009         135.018         134.998         135.010         135.032         135.053         135.074         135.093    
          135.110         135.127         135.142         135.156         135.169         135.180         135.190         135.199         135.206         135.212    
          135.218         135.222         135.226         135.229         135.232         135.234         135.236         135.237         135.238         135.239    
          135.240         135.240         135.240         135.240         135.240         135.240         133.563         133.573         133.586         133.601    
          133.618         133.636         133.655         133.676         133.697         133.720         133.744         133.768         133.794         133.821    
          133.849         133.878         133.908         133.940         133.974         134.010         134.048         134.088         134.131         134.177    
          134.226         134.279         134.336         134.395         134.459         134.525         134.591         134.652         134.710         134.762    
          134.807         134.846         134.881         134.913         134.940         134.963         134.976         134.955         134.967         134.988    
          134.999         134.980         134.990         135.012         135.033         135.053         135.072         135.090         135.106         135.122    
          135.137         135.150         135.162         135.172         135.182         135.190         135.197         135.203         135.208         135.213    
          135.217         135.220         135.223         135.226         135.228         135.230         135.231         135.232         135.232         135.233    
          135.233         135.233         135.233         133.576         133.586         133.600         133.615         133.633         133.652         133.672    
          133.693         133.716         133.740         133.765         133.790         133.817         133.845         133.874         133.903         133.935    
          133.968         134.003         134.039         134.078         134.120         134.165         134.213         134.264         134.320         134.378    
          134.441         134.508         134.575         134.636         134.694         134.746         134.792         134.831         134.866         134.897    
          134.921         134.933         134.914         134.926         134.946         134.957         134.938         134.950         134.971         134.993    
          135.014         135.034         135.053         135.070         135.087         135.103         135.118         135.131         135.143         135.154    
          135.165         135.174         135.182         135.189         135.195         135.200         135.204         135.208         135.212         135.216    
          135.219         135.221         135.222         135.224         135.225         135.225         135.226         135.226         135.226         133.589    
          133.599         133.613         133.630         133.648         133.668         133.689         133.712         133.735         133.760         133.786    
          133.813         133.840         133.869         133.898         133.928         133.961         133.994         134.030         134.067         134.108    
          134.151         134.198         134.248         134.303         134.361         134.423         134.489         134.558         134.621         134.679    
          134.731         134.777         134.817         134.852         134.882         134.906         134.918         134.900         134.910         134.930    
          134.941         134.922         134.934         134.954         134.976         134.997         135.016         135.035         135.052         135.069    
          135.084         135.099         135.113         135.125         135.136         135.147         135.158         135.167         135.174         135.181    
          135.187         135.192         135.197         135.201         135.205         135.209         135.212         135.214         135.216         135.217    
          135.218         135.219         135.219         135.219         133.602         133.613         133.627         133.644         133.663         133.684    
          133.707         133.730         133.755         133.781         133.807         133.835         133.863         133.891         133.921         133.953    
          133.985         134.020         134.056         134.095         134.136         134.182         134.231         134.284         134.341         134.404    
          134.470         134.539         134.604         134.664         134.717         134.764         134.804         134.838         134.868         134.894    
          134.915         134.926         134.909         134.920         134.939         134.960         134.980         134.999         135.018         135.035    
          135.052         135.067         135.081         135.095         135.107         135.119         135.130         135.141         135.151         135.160    
          135.167         135.174         135.180         135.186         135.191         135.195         135.199         135.202         135.205         135.207    
          135.209         135.210         135.211         135.212         135.212         133.614         133.626         133.641         133.659         133.680    
          133.702         133.725         133.749         133.775         133.801         133.828         133.856         133.884         133.914         133.944    
          133.976         134.009         134.044         134.081         134.122         134.166         134.214         134.266         134.322         134.383    
          134.449         134.519         134.587         134.649         134.703         134.749         134.790         134.825         134.854         134.879    
          134.900         134.911         134.894         134.905         134.924         134.944         134.965         134.984         135.002         135.020    
          135.036         135.051         135.065         135.079         135.091         135.102         135.114         135.125         135.136         135.145    
          135.154         135.162         135.168         135.174         135.180         135.185         135.189         135.193         135.196         135.198    
          135.201         135.202         135.204         135.204         135.205         133.628         133.640         133.656         133.675         133.696    
          133.719         133.743         133.768         133.794         133.821         133.849         133.877         133.906         133.935         133.966    
          133.998         134.032         134.068         134.107         134.150         134.196         134.247         134.302         134.362         134.428    
          134.498         134.568         134.632         134.688         134.736         134.776         134.810         134.838         134.864         134.885    
          134.896         134.878         134.889         134.909         134.930         134.950         134.970         134.989         135.006         135.022    
          135.037         135.051         135.064         135.076         135.088         135.099         135.111         135.122         135.132         135.141    
          135.150         135.157         135.164         135.170         135.175         135.180         135.184         135.187         135.190         135.192    
          135.194         135.196         135.197         135.198         133.642         133.656         133.673         133.692         133.714         133.737    
          133.761         133.787         133.813         133.841         133.868         133.897         133.926         133.956         133.987         134.020    
          134.055         134.092         134.134         134.179         134.229         134.284         134.343         134.408         134.478         134.549    
          134.614         134.672         134.720         134.760         134.793         134.822         134.848         134.869         134.880         134.862    
          134.873         134.893         134.915         134.936         134.957         134.976         134.993         135.010         135.025         135.038    
          135.051         135.063         135.075         135.086         135.098         135.109         135.120         135.130         135.139         135.147    
          135.151         135.142         135.146         135.155         135.157         135.150         135.153         135.161         135.164         135.156    
          135.159         135.167         135.169         135.162         135.165         135.172         135.174         135.168         135.170         135.176    
          135.178         135.172         135.174         135.180         135.181         135.176         135.177         135.183         135.184         135.179    
          135.181         135.186         135.187         135.182         135.184         135.187         135.189         135.190         135.191         133.659    
          133.672         133.689         133.709         133.731         133.754         133.779         133.805         133.832         133.860         133.888    
          133.917         133.946         133.977         134.008         134.042         134.079         134.119         134.164         134.213         134.267    
          134.326         134.391         134.459         134.529         134.595         134.653         134.702         134.743         134.776         134.805    
          134.831         134.853         134.864         134.845         134.856         134.877         134.900         134.923         134.944         134.964    
          134.983         134.999         135.015         135.029         135.041         135.053         135.064         135.075         135.087         135.098    
          135.103         135.093         135.098         135.109         135.114         135.104         135.109         135.119         135.124         135.115    
          135.119         135.129         135.133         135.124         135.128         135.137         135.141         135.133         135.136         135.144    
          135.151         135.157         135.162         135.167         135.172         135.174         135.169         135.170         135.175         135.177    
          135.172         135.173         135.179         135.180         135.175         135.176         135.181         135.182         135.177         135.179    
          135.182         135.183         135.184         133.675         133.688         133.705         133.725         133.747         133.771         133.796    
          133.823         133.850         133.878         133.907         133.936         133.967         133.998         134.031         134.067         134.106    
          134.150         134.199         134.253         134.313         134.376         134.441         134.507         134.571         134.630         134.684    
          134.725         134.759         134.789         134.812         134.823         134.805         134.816         134.836         134.847         134.829    
          134.839         134.861         134.885         134.909         134.932         134.954         134.973         134.991         135.006         135.020    
          135.033         135.045         135.056         135.067         135.072         135.063         135.069         135.078         135.082         135.074    
          135.079         135.088         135.093         135.085         135.090         135.100         135.110         135.119         135.128         135.135    
          135.142         135.149         135.155         135.160         135.164         135.167         135.171         135.174         135.175         135.172    
          135.172         135.176         135.177         135.173         135.175         135.177         135.179         133.691         133.704         133.721    
          133.741         133.763         133.788         133.813         133.841         133.869         133.898         133.927         133.957         133.988    
          134.021         134.057         134.096         134.140         134.191         134.245         134.304         134.366         134.428         134.491    
          134.553         134.612         134.665         134.708         134.743         134.773         134.796         134.807         134.789         134.801    
          134.822         134.847         134.871         134.896         134.921         134.944         134.965         134.983         134.999         135.014    
          135.027         135.039         135.049         135.054         135.046         135.051         135.060         135.065         135.057         135.062    
          135.072         135.082         135.093         135.102         135.111         135.120         135.127         135.135         135.141         135.147    
          135.153         135.157         135.161         135.165         135.168         135.170         135.172         135.168         135.169         135.172    
          135.173         135.170         135.170         135.174         135.171         133.706         133.718         133.735         133.756         133.779    
          133.804         133.831         133.859         133.888         133.918         133.948         133.980         134.013         134.049         134.089    
          134.133         134.184         134.239         134.297         134.357         134.418         134.478         134.538         134.594         134.646    
          134.690         134.726         134.757         134.781         134.793         134.775         134.785         134.806         134.816         134.798    
          134.811         134.833         134.859         134.885         134.911         134.935         134.957         134.976         134.993         135.008    
          135.021         135.033         135.043         135.049         135.041         135.047         135.056         135.067         135.077         135.087    
          135.096         135.105         135.113         135.121         135.128         135.135         135.141         135.146         135.151         135.155    
          135.159         135.162         135.165         135.166         135.166         133.719         133.732         133.749         133.770         133.794    
          133.821         133.849         133.879         133.909         133.940         133.973         134.007         134.044         134.085         134.131    
          134.180         134.234         134.291         134.350         134.409         134.467         134.523         134.576         134.625         134.669    
          134.707         134.739         134.767         134.790         134.803         134.784         134.797         134.820         134.847         134.874    
          134.901         134.927         134.950         134.970         134.987         135.002         135.016         135.027         135.033         135.025    
          135.031         135.039         135.044         135.038         135.043         135.052         135.063         135.073         135.083         135.092    
          135.100         135.108         135.116         135.123         135.129         135.135         135.141         135.146         135.151         135.155    
          135.158         135.161         135.163         135.164         133.732         133.744         133.762         133.785         133.811         133.840    
          133.870         133.901         133.934         133.968         134.003         134.042         134.084         134.129         134.177         134.230    
          134.286         134.343         134.400         134.455         134.508         134.560         134.606         134.648         134.685         134.720    
          134.751         134.776         134.790         134.770         134.782         134.804         134.816         134.797         134.811         134.835    
          134.864         134.893         134.919         134.943         134.961         134.970         134.958         134.968         134.980         134.987    
          134.978         134.985         134.996         135.002         134.994         135.000         135.010         135.016         135.008         135.014    
          135.023         135.029         135.022         135.027         135.037         135.049         135.059         135.070         135.079         135.088    
          135.096         135.104         135.111         135.118         135.125         135.131         135.136         135.142         135.146         135.151    
          135.155         135.158         135.161         135.163         133.742         133.756         133.776         133.801         133.830         133.862    
          133.895         133.929         133.965         134.003         134.043         134.084         134.128         134.175         134.227         134.281    
          134.336         134.391         134.443         134.494         134.543         134.588         134.628         134.665         134.699         134.732    
          134.764         134.789         134.804         134.785         134.797         134.820         134.833         134.813         134.829         134.855    
          134.885         134.908         134.920         134.905         134.918         134.934         134.943         134.931         134.941         134.955    
          134.965         134.953         134.962         134.978         134.994         135.008         135.022         135.035         135.046         135.057    
          135.067         135.076         135.085         135.092         135.100         135.107         135.114         135.120         135.127         135.132    
          135.138         135.143         135.147         135.152         135.155         133.754         133.770         133.793         133.822         133.855    
          133.890         133.927         133.966         134.005         134.045         134.085         134.127         134.174         134.223         134.275    
          134.328         134.380         134.430         134.479         134.526         134.570         134.609         134.645         134.680         134.712    
          134.746         134.779         134.806         134.823         134.802         134.816         134.840         134.854         134.834         134.849    
          134.872         134.884         134.867         134.881         134.900         134.914         134.898         134.910         134.932         134.955    
          134.974         134.991         135.006         135.020         135.032         135.044         135.055         135.064         135.073         135.082    
          135.089         135.097         135.104         135.111         135.117         135.123         135.129         135.134         135.140         135.144    
          133.768         133.787         133.815         133.850         133.888         133.929         133.970         134.009         134.047         134.087    
          134.128         134.172         134.220         134.269         134.319         134.369         134.416         134.463         134.509         134.551    
          134.590         134.627         134.661         134.694         134.729         134.763         134.798         134.834         134.868         134.900    
          134.928         134.952         134.971         134.988         135.003         135.018         135.030         135.042         135.053         135.063    
          135.071         135.080         135.087         135.094         135.101         135.108         135.114         135.120         135.126         135.130    
          133.787         133.811         133.848         133.892         133.936         133.976         134.015         134.052         134.090         134.129    
          134.171         134.216         134.263         134.310         134.356         134.402         134.446         134.491         134.533         134.572    
          134.609         134.645         134.679         134.715         134.751         134.787         134.826         134.862         134.896         134.925    
          134.950         134.969         134.986         135.002         135.016         135.029         135.040         135.051         135.061         135.070    
          135.078         135.085         135.091         135.098         135.105         135.112         135.116         133.813         133.852         133.902    
          133.947         133.986         134.022         134.058         134.094         134.131         134.171         134.213         134.256         134.300    
          134.343         134.386         134.428         134.471         134.513         134.556         134.595         134.631         134.667         134.705    
          134.743         134.780         134.820         134.858         134.893         134.924         134.948         134.968         134.985         135.001    
          135.015         135.027         135.038         135.048         135.060         135.069         135.077         135.084         135.090         135.094    
          133.865         133.921         133.963         133.999         134.032         134.065         134.099         134.134         134.171         134.210    
          134.249         134.290         134.330         134.370         134.410         134.452         134.493         134.543         134.585         134.622    
          134.659         134.698         134.738         134.776         134.818         134.857         134.893         134.923         134.948         134.968    
          134.985         135.000         135.014         135.026         135.036         135.042         133.954         133.985         134.014         134.043    
          134.072         134.103         134.136         134.171         134.207         134.243         134.280         134.316         134.354         134.391    
          134.435         134.463         134.008         134.030         134.053         134.079         134.107         134.138         134.170         134.204    
          134.238         134.270         134.302         134.340         134.365         134.046         134.061         134.083         134.109         134.138    
          134.170         134.203         134.234         134.262         134.282    
1
  HEAD IN LAYER   3 AT END OF TIME STEP  48 IN STRESS PERIOD    2
  ---------------------------------------------------------------------------

                1               2               3               4               5               6               7               8               9              10
               11              12              13              14              15              16              17              18              19              20
               21              22              23              24              25              26              27              28              29              30
               31              32              33              34              35              36              37              38              39              40
               41              42              43              44              45              46              47              48              49              50
               51              52              53              54              55              56              57              58              59              60
               61              62              63              64              65              66              67              68              69              70
               71              72              73              74              75              76              77              78              79              80
               81              82              83              84              85              86              87              88              89              90
               91              92              93              94              95              96              97              98              99             100
              101             102             103             104             105             106             107             108             109             110
              111             112             113             114             115             116             117             118             119             120
              121             122             123             124             125             126             127             128             129             130
              131             132             133             134             135             136             137             138             139             140
              141             142             143             144             145             146             147             148             149             150
              151             152             153             154             155             156             157             158             159             160
              161             162             163             164             165             166             167             168             169             170
              171             172             173             174             175             176             177             178             179             180
              181             182             183             184             185             186             187             188             189             190
              191             192             193             194             195             196             197             198             199             200
              201             202             203             204             205             206             207             208             209             210
              211             212             213             214             215             216             217             218             219             220
              221             222             223             224             225             226             227             228             229             230
              231             232             233             234             235             236             237             238             239             240
              241             242             243             244             245             246             247             248             249             250
              251             252             253             254             255             256             257             258             259             260
              261             262             263             264             265             266             267             268             269             270
              271             272             273             274             275             276             277             278             279             280
              281             282             283             284             285             286             287             288             289             290
              291             292             293             294             295             296             297             298             299             300
              301             302             303             304             305             306             307             308             309             310
              311             312             313             314             315             316             317             318             319             320
              321             322             323             324             325             326             327             328             329             330
              331             332             333             334             335             336             337             338             339             340
              341             342             343             344             345             346             347             348             349             350
              351             352             353             354             355             356             357             358             359             360
              361             362             363             364             365             366             367             368             369             370
              371             372             373             374             375             376             377             378             379             380
              381             382             383             384             385             386             387             388             389             390
              391             392             393             394             395             396             397             398             399             400
              401             402             403             404             405             406             407             408             409             410
              411             412             413             414             415             416             417             418             419             420
              421             422             423             424             425             426             427             428             429             430
              431             432             433             434             435             436             437             438             439             440
              441             442             443             444             445             446             447             448             449             450
              451             452             453             454             455             456             457             458             459             460
              461             462             463             464             465             466             467             468             469             470
              471             472             473             474             475             476             477             478             479             480
              481             482             483             484             485             486             487             488             489             490
              491             492             493             494             495             496             497             498             499             500
              501             502             503             504             505             506             507             508             509             510
              511             512             513             514             515             516             517             518             519             520
              521             522             523             524             525             526             527             528             529             530
              531             532             533             534             535             536             537             538             539             540
              541             542             543             544             545             546             547             548             549             550
              551             552             553             554             555             556             557             558             559             560
              561             562             563             564             565             566             567             568             569             570
              571             572             573             574             575             576             577             578             579             580
              581             582             583             584             585             586             587             588             589             590
              591             592             593             594             595             596             597             598             599             600
              601             602             603             604             605             606             607             608             609             610
              611             612             613             614             615             616             617             618             619             620
              621             622             623             624             625             626             627             628             629             630
              631             632             633             634             635             636             637             638             639             640
              641             642             643             644             645             646             647             648             649             650
              651             652             653             654             655             656             657             658             659             660
              661             662             663             664             665             666             667             668             669             670
              671             672             673             674             675             676             677             678             679             680
              681             682             683             684             685             686             687             688             689             690
              691             692             693             694             695             696             697             698             699             700
              701             702             703             704             705             706             707             708             709             710
              711             712             713             714             715             716             717             718             719             720
              721             722             723             724             725             726             727             728             729             730
              731             732             733             734             735             736             737             738             739             740
              741             742             743             744             745             746             747             748             749             750
              751             752             753             754             755             756             757             758             759             760
              761             762             763             764             765             766             767             768             769             770
              771             772             773             774             775             776             777             778             779             780
              781             782             783             784             785             786             787             788             789             790
              791             792             793             794             795             796             797             798             799             800
              801             802             803             804             805             806             807             808             809             810
              811             812             813             814             815             816             817             818             819             820
              821             822             823             824             825             826             827             828             829             830
              831             832             833             834             835             836             837             838             839             840
              841             842             843             844             845             846             847             848             849             850
              851             852             853             854             855             856             857             858             859             860
              861             862             863             864             865             866             867             868             869             870
              871             872             873             874             875             876             877             878             879             880
              881             882             883             884             885             886             887             888             889             890
              891             892             893             894             895             896             897             898             899             900
              901             902             903             904             905             906             907             908             909             910
              911             912             913             914             915             916             917             918             919             920
              921             922             923             924             925             926             927             928             929             930
              931             932             933             934             935             936             937             938             939             940
              941             942             943             944             945             946             947             948             949             950
              951             952             953             954             955             956             957             958             959             960
              961             962             963             964             965             966             967             968             969             970
              971             972             973             974             975             976             977             978             979             980
              981             982             983             984             985             986             987             988             989             990
              991             992             993             994             995             996             997             998             999            1000
             1001            1002            1003            1004            1005            1006            1007            1008            1009            1010
             1011            1012            1013            1014            1015            1016            1017            1018            1019            1020
             1021            1022            1023            1024            1025            1026            1027            1028            1029            1030
             1031            1032            1033            1034            1035            1036            1037            1038            1039            1040
             1041            1042            1043            1044            1045            1046            1047            1048            1049            1050
             1051            1052            1053            1054            1055            1056            1057            1058            1059            1060
             1061            1062            1063            1064            1065            1066            1067            1068            1069            1070
             1071            1072            1073            1074            1075            1076            1077            1078            1079            1080
             1081            1082            1083            1084            1085            1086            1087            1088            1089            1090
             1091            1092            1093            1094            1095            1096            1097            1098            1099            1100
             1101            1102            1103            1104            1105            1106            1107            1108            1109            1110
             1111            1112            1113            1114            1115            1116            1117            1118            1119            1120
             1121            1122            1123            1124            1125            1126            1127            1128            1129            1130
             1131            1132            1133            1134            1135            1136            1137            1138            1139            1140
             1141            1142            1143            1144            1145            1146            1147            1148            1149            1150
             1151            1152            1153            1154            1155            1156            1157            1158            1159            1160
             1161            1162            1163            1164            1165            1166            1167            1168            1169            1170
             1171            1172            1173            1174            1175            1176            1177            1178            1179            1180
             1181            1182            1183            1184            1185            1186            1187            1188            1189            1190
             1191            1192            1193            1194            1195            1196            1197            1198            1199            1200
             1201            1202            1203            1204            1205            1206            1207            1208            1209            1210
             1211            1212            1213            1214            1215            1216            1217            1218            1219            1220
             1221            1222            1223            1224            1225            1226            1227            1228            1229            1230
             1231            1232            1233            1234            1235            1236            1237            1238            1239            1240
             1241            1242            1243            1244            1245            1246            1247            1248            1249            1250
             1251            1252            1253            1254            1255            1256            1257            1258            1259            1260
             1261            1262            1263            1264            1265            1266            1267            1268            1269            1270
             1271            1272            1273            1274            1275            1276            1277            1278            1279            1280
             1281            1282            1283            1284            1285            1286            1287            1288            1289            1290
             1291            1292            1293            1294            1295            1296            1297            1298            1299            1300
             1301            1302            1303            1304            1305            1306            1307            1308            1309            1310
             1311            1312            1313            1314            1315            1316            1317            1318            1319            1320
             1321            1322            1323            1324            1325            1326            1327            1328            1329            1330
             1331            1332            1333            1334            1335            1336            1337            1338            1339            1340
             1341            1342            1343            1344            1345            1346            1347            1348            1349            1350
             1351            1352            1353            1354            1355            1356            1357            1358            1359            1360
             1361            1362            1363            1364            1365            1366            1367            1368            1369            1370
             1371            1372            1373            1374            1375            1376            1377            1378            1379            1380
             1381            1382            1383            1384            1385            1386            1387            1388            1389            1390
             1391            1392            1393            1394            1395            1396            1397            1398            1399            1400
             1401            1402            1403            1404            1405            1406            1407            1408            1409            1410
             1411            1412            1413            1414            1415            1416            1417            1418            1419            1420
             1421            1422            1423            1424            1425            1426            1427            1428            1429            1430
             1431            1432            1433            1434            1435            1436            1437            1438            1439            1440
             1441            1442            1443            1444            1445            1446            1447            1448            1449            1450
             1451            1452            1453            1454            1455            1456            1457            1458            1459            1460
             1461            1462            1463            1464            1465            1466            1467            1468            1469            1470
             1471            1472            1473            1474            1475            1476            1477            1478            1479            1480
             1481            1482            1483            1484            1485            1486            1487            1488            1489            1490
             1491            1492            1493            1494            1495            1496            1497            1498            1499            1500
             1501            1502            1503            1504            1505            1506            1507            1508            1509            1510
             1511            1512            1513            1514            1515            1516            1517            1518            1519            1520
             1521            1522            1523            1524            1525            1526            1527            1528            1529            1530
             1531            1532            1533            1534            1535            1536            1537            1538            1539            1540
             1541            1542            1543            1544            1545            1546            1547            1548            1549            1550
             1551            1552            1553            1554            1555            1556            1557            1558            1559            1560
             1561            1562            1563            1564            1565            1566            1567            1568            1569            1570
             1571            1572            1573            1574            1575            1576            1577            1578            1579            1580
             1581            1582            1583            1584            1585            1586            1587            1588            1589            1590
             1591            1592            1593            1594            1595            1596            1597            1598            1599            1600
             1601            1602            1603            1604            1605            1606            1607            1608            1609            1610
             1611            1612            1613            1614            1615            1616            1617            1618            1619            1620
             1621            1622            1623            1624            1625            1626            1627            1628            1629            1630
             1631            1632            1633            1634            1635            1636            1637            1638            1639            1640
             1641            1642            1643            1644            1645            1646            1647            1648            1649            1650
             1651            1652            1653            1654            1655            1656            1657            1658            1659            1660
             1661            1662            1663            1664            1665            1666            1667            1668            1669            1670
             1671            1672            1673            1674            1675            1676            1677            1678            1679            1680
             1681            1682            1683            1684            1685            1686            1687            1688            1689            1690
             1691            1692            1693            1694            1695            1696            1697            1698            1699            1700
             1701            1702            1703            1704            1705            1706            1707            1708            1709            1710
             1711            1712            1713            1714            1715            1716            1717            1718            1719            1720
             1721            1722            1723            1724            1725            1726            1727            1728            1729            1730
             1731            1732            1733            1734            1735            1736            1737            1738            1739            1740
             1741            1742            1743            1744            1745            1746            1747            1748            1749            1750
             1751            1752            1753            1754            1755            1756            1757            1758            1759            1760
             1761            1762            1763            1764            1765            1766            1767            1768            1769            1770
             1771            1772            1773            1774            1775            1776            1777            1778            1779            1780
             1781            1782            1783            1784            1785            1786            1787            1788            1789            1790
             1791            1792            1793            1794            1795            1796            1797            1798            1799            1800
             1801            1802            1803            1804            1805            1806            1807            1808            1809            1810
             1811            1812            1813            1814            1815            1816            1817            1818            1819            1820
             1821            1822            1823            1824            1825            1826            1827            1828            1829            1830
             1831            1832            1833            1834            1835            1836            1837            1838            1839            1840
             1841            1842            1843            1844            1845            1846            1847            1848            1849            1850
             1851            1852            1853            1854            1855            1856            1857            1858            1859            1860
             1861            1862            1863            1864            1865            1866            1867            1868            1869            1870
             1871            1872            1873            1874            1875            1876            1877            1878            1879            1880
             1881            1882            1883            1884            1885            1886            1887            1888            1889            1890
             1891            1892            1893            1894            1895            1896            1897            1898            1899            1900
             1901            1902            1903            1904            1905            1906            1907            1908            1909            1910
             1911            1912            1913            1914            1915            1916            1917            1918            1919            1920
             1921            1922            1923            1924            1925            1926            1927            1928            1929            1930
             1931            1932            1933            1934            1935            1936            1937            1938            1939            1940
             1941            1942            1943            1944            1945            1946            1947            1948            1949            1950
             1951            1952            1953            1954            1955            1956            1957            1958            1959            1960
             1961            1962            1963            1964            1965            1966            1967            1968            1969            1970
             1971            1972            1973            1974            1975            1976            1977            1978            1979            1980
             1981            1982            1983            1984            1985            1986            1987            1988            1989            1990
             1991            1992            1993            1994            1995            1996            1997            1998            1999            2000
             2001            2002            2003            2004            2005            2006            2007            2008            2009            2010
             2011            2012            2013            2014            2015            2016            2017            2018            2019            2020
             2021            2022            2023            2024            2025            2026            2027            2028            2029            2030
             2031            2032            2033            2034            2035            2036            2037            2038            2039            2040
             2041            2042            2043            2044            2045            2046            2047            2048            2049            2050
             2051            2052            2053            2054            2055            2056            2057            2058            2059            2060
             2061            2062            2063            2064            2065            2066            2067            2068            2069            2070
             2071            2072            2073            2074            2075            2076            2077            2078            2079            2080
             2081            2082            2083            2084            2085            2086            2087            2088            2089            2090
             2091            2092            2093            2094            2095            2096            2097            2098            2099            2100
             2101            2102            2103            2104            2105            2106            2107            2108            2109            2110
             2111            2112            2113            2114            2115            2116            2117            2118            2119            2120
             2121            2122            2123            2124            2125            2126            2127            2128            2129            2130
             2131            2132            2133            2134            2135            2136            2137            2138            2139            2140
             2141            2142            2143            2144            2145            2146            2147            2148            2149            2150
             2151            2152            2153            2154            2155            2156            2157            2158            2159            2160
             2161            2162            2163            2164            2165            2166            2167            2168            2169            2170
             2171            2172            2173            2174            2175            2176            2177            2178            2179            2180
             2181            2182            2183            2184            2185            2186            2187            2188            2189            2190
             2191            2192            2193            2194            2195            2196            2197            2198            2199            2200
             2201            2202            2203            2204            2205            2206            2207            2208            2209            2210
             2211            2212            2213            2214            2215            2216            2217            2218            2219            2220
             2221            2222            2223            2224            2225            2226            2227            2228            2229            2230
             2231            2232            2233            2234            2235            2236            2237            2238            2239            2240
             2241            2242            2243            2244            2245            2246            2247            2248            2249            2250
             2251            2252            2253            2254            2255            2256            2257            2258            2259            2260
             2261            2262            2263            2264            2265            2266            2267            2268            2269            2270
             2271            2272            2273            2274            2275            2276            2277            2278            2279            2280
             2281            2282            2283            2284            2285            2286            2287            2288            2289            2290
             2291            2292            2293            2294            2295            2296            2297            2298            2299            2300
             2301            2302            2303            2304            2305            2306            2307            2308            2309            2310
             2311            2312            2313            2314            2315            2316            2317            2318            2319            2320
             2321            2322            2323            2324            2325            2326            2327            2328            2329            2330
             2331            2332            2333            2334            2335            2336            2337            2338            2339            2340
             2341            2342            2343            2344            2345            2346            2347            2348            2349            2350
             2351            2352            2353            2354            2355            2356            2357            2358            2359            2360
             2361            2362            2363            2364            2365            2366            2367            2368            2369            2370
             2371            2372            2373            2374            2375            2376            2377            2378            2379            2380
             2381            2382            2383            2384            2385            2386            2387            2388            2389            2390
             2391            2392            2393            2394            2395            2396            2397            2398            2399            2400
             2401            2402            2403            2404            2405            2406            2407            2408            2409            2410
             2411            2412            2413            2414            2415            2416            2417            2418            2419            2420
             2421            2422            2423            2424            2425            2426            2427            2428            2429            2430
             2431            2432            2433            2434            2435            2436            2437            2438            2439            2440
             2441            2442            2443            2444            2445            2446            2447            2448            2449            2450
             2451            2452            2453            2454            2455            2456            2457            2458            2459            2460
             2461            2462            2463            2464            2465            2466            2467            2468            2469            2470
             2471            2472            2473            2474            2475            2476            2477            2478            2479            2480
             2481            2482            2483            2484            2485            2486            2487            2488            2489            2490
             2491            2492            2493            2494            2495            2496            2497            2498            2499            2500
             2501            2502            2503            2504            2505            2506            2507            2508            2509            2510
             2511            2512            2513            2514            2515            2516            2517            2518            2519            2520
             2521            2522            2523            2524            2525            2526            2527            2528            2529            2530
             2531            2532            2533            2534            2535            2536            2537            2538            2539            2540
             2541            2542            2543            2544            2545            2546            2547            2548            2549            2550
             2551            2552            2553            2554            2555            2556            2557            2558            2559            2560
             2561            2562            2563            2564            2565            2566            2567            2568            2569            2570
             2571            2572            2573            2574            2575            2576            2577            2578            2579            2580
             2581            2582            2583            2584            2585            2586            2587            2588            2589            2590
             2591            2592            2593            2594            2595            2596            2597            2598            2599            2600
             2601            2602            2603            2604            2605            2606            2607            2608            2609            2610
             2611            2612            2613            2614            2615            2616            2617            2618            2619            2620
             2621            2622            2623            2624            2625            2626            2627            2628            2629            2630
             2631            2632            2633            2634            2635            2636            2637            2638            2639            2640
             2641            2642            2643            2644            2645            2646            2647            2648            2649            2650
             2651            2652            2653            2654            2655            2656            2657            2658            2659            2660
             2661            2662            2663            2664            2665            2666            2667            2668            2669            2670
             2671            2672            2673            2674            2675            2676            2677            2678            2679            2680
             2681            2682            2683            2684            2685            2686            2687            2688            2689            2690
             2691            2692            2693            2694            2695            2696            2697            2698            2699            2700
             2701            2702            2703            2704            2705            2706            2707            2708            2709            2710
             2711            2712            2713            2714            2715            2716            2717            2718            2719            2720
             2721            2722            2723            2724            2725            2726            2727            2728            2729            2730
             2731            2732            2733            2734            2735            2736            2737            2738            2739            2740
             2741            2742            2743            2744            2745            2746            2747            2748            2749            2750
             2751            2752            2753            2754            2755            2756            2757            2758            2759            2760
             2761            2762            2763            2764            2765            2766            2767            2768            2769            2770
             2771            2772            2773            2774            2775            2776            2777            2778            2779            2780
             2781            2782            2783            2784            2785            2786            2787            2788            2789            2790
             2791            2792            2793            2794            2795            2796            2797            2798            2799            2800
             2801            2802            2803            2804            2805            2806            2807            2808            2809            2810
             2811            2812            2813            2814            2815            2816            2817            2818            2819            2820
             2821            2822            2823            2824            2825            2826            2827            2828            2829            2830
             2831            2832            2833            2834            2835            2836            2837            2838            2839            2840
             2841            2842            2843            2844            2845            2846            2847            2848            2849            2850
             2851            2852            2853            2854            2855            2856            2857            2858            2859            2860
             2861            2862            2863            2864            2865            2866            2867            2868            2869            2870
             2871            2872            2873            2874            2875            2876            2877            2878            2879            2880
             2881            2882            2883            2884            2885            2886            2887            2888            2889            2890
             2891            2892            2893            2894            2895            2896            2897            2898            2899            2900
             2901            2902            2903            2904            2905            2906            2907            2908            2909            2910
             2911            2912            2913            2914            2915            2916            2917            2918            2919            2920
             2921            2922            2923            2924            2925            2926            2927            2928            2929            2930
             2931            2932            2933            2934            2935            2936            2937            2938            2939            2940
             2941            2942            2943            2944            2945            2946            2947            2948            2949            2950
             2951            2952            2953            2954            2955            2956            2957            2958            2959            2960
             2961            2962            2963            2964            2965            2966            2967            2968            2969            2970
             2971            2972            2973            2974            2975            2976            2977            2978            2979            2980
             2981            2982            2983            2984            2985            2986            2987            2988            2989            2990
             2991            2992            2993            2994            2995            2996            2997            2998            2999            3000
             3001            3002            3003            3004            3005            3006            3007            3008            3009            3010
             3011            3012            3013            3014            3015            3016            3017            3018            3019            3020
             3021            3022            3023            3024            3025            3026            3027            3028            3029            3030
             3031            3032            3033            3034            3035            3036            3037            3038            3039            3040
             3041            3042            3043            3044            3045            3046            3047            3048            3049            3050
             3051            3052            3053            3054            3055            3056            3057            3058            3059            3060
             3061            3062            3063            3064            3065            3066            3067            3068            3069            3070
             3071            3072            3073            3074            3075            3076            3077            3078            3079            3080
             3081            3082            3083            3084            3085            3086            3087            3088            3089            3090
             3091            3092            3093            3094            3095            3096            3097            3098            3099            3100
             3101            3102            3103            3104            3105            3106            3107            3108            3109            3110
             3111            3112            3113            3114            3115            3116            3117            3118            3119            3120
             3121            3122            3123            3124            3125            3126            3127            3128            3129            3130
             3131            3132            3133            3134            3135
 ................................................................................................................................................................
   1      133.598         133.598         133.597         133.597         133.601         133.604         133.600         133.604         133.612         133.632    
          133.661         133.697         133.741         133.789         133.841         133.896         133.953         134.009         134.066         134.119    
          134.168         134.208         134.234         133.592         133.594         133.595         133.595         133.596         133.599         133.603    
          133.599         133.601         133.608         133.614         133.606         133.613         133.628         133.655         133.691         133.734    
          133.782         133.834         133.889         133.946         134.003         134.060         134.115         134.166         134.211         134.249    
          134.280         133.584         133.588         133.590         133.592         133.592         133.594         133.598         133.605         133.612    
          133.605         133.610         133.620         133.629         133.618         133.627         133.644         133.656         133.640         133.654    
          133.681         133.722         133.769         133.822         133.877         133.935         133.994         134.051         134.108         134.163    
          134.213         134.258         134.298         134.332         133.576         133.580         133.584         133.587         133.588         133.590    
          133.592         133.597         133.606         133.620         133.637         133.651         133.636         133.647         133.667         133.681    
          133.662         133.679         133.710         133.756         133.808         133.864         133.922         133.981         134.040         134.099    
          134.157         134.212         134.263         134.311         134.354         134.391         133.568         133.572         133.576         133.580    
          133.584         133.586         133.589         133.592         133.597         133.606         133.619         133.638         133.660         133.675    
          133.659         133.672         133.694         133.711         133.690         133.709         133.743         133.794         133.850         133.908    
          133.968         134.029         134.089         134.149         134.208         134.265         134.319         134.371         134.418         134.461    
          133.559         133.563         133.568         133.573         133.577         133.582         133.585         133.589         133.594         133.600    
          133.608         133.620         133.638         133.663         133.688         133.706         133.688         133.703         133.728         133.747    
          133.724         133.746         133.784         133.838         133.896         133.956         134.016         134.077         134.140         134.202    
          134.263         134.324         134.383         134.440         134.493         134.543         133.550         133.554         133.560         133.565    
          133.570         133.576         133.581         133.586         133.591         133.596         133.603         133.613         133.625         133.642    
          133.665         133.695         133.724         133.745         133.725         133.743         133.769         133.790         133.767         133.791    
          133.831         133.887         133.945         134.004         134.065         134.129         134.193         134.259         134.325         134.390    
          134.456         134.520         134.583         134.642         133.541         133.546         133.551         133.557         133.563         133.569    
          133.575         133.581         133.587         133.593         133.600         133.609         133.619         133.632         133.649         133.671    
          133.700         133.736         133.768         133.791         133.771         133.790         133.818         133.839         133.816         133.841    
          133.881         133.936         133.993         134.053         134.116         134.182         134.251         134.321         134.394         134.467    
          134.541         134.616         134.692         134.767         133.534         133.538         133.543         133.548         133.554         133.561    
          133.567         133.574         133.581         133.589         133.597         133.605         133.615         133.626         133.640         133.658    
          133.680         133.708         133.742         133.783         133.818         133.841         133.820         133.840         133.868         133.889    
          133.867         133.888         133.919         133.942         133.916         133.938         133.972         133.996         133.967         133.994    
          134.040         134.102         134.169         134.240         134.315         134.392         134.472         134.554         134.640         134.731    
          134.829         134.954         135.059         135.151         135.234         135.310         135.379         135.443         135.499         135.551    
          135.597         135.638         135.673         135.703         135.727         135.746         135.757         135.761         135.755         135.739    
          135.713         135.679         135.643         135.610         135.579         135.553         135.529         135.508         135.489         135.472    
          135.456         135.443         135.431         135.420         135.411         135.403         135.398         133.533         133.536         133.540    
          133.546         133.552         133.559         133.567         133.575         133.583         133.591         133.601         133.611         133.622    
          133.635         133.650         133.668         133.691         133.718         133.750         133.788         133.831         133.876         133.924    
          133.964         133.991         133.963         133.986         134.021         134.044         134.016         134.039         134.078         134.105    
          134.070         134.102         134.155         134.227         134.304         134.385         134.469         134.558         134.651         134.749    
          134.850         134.955         135.053         135.142         135.223         135.298         135.366         135.428         135.485         135.535    
          135.581         135.621         135.656         135.685         135.709         135.727         135.738         135.741         135.736         135.720    
          135.696         135.665         135.632         135.601         135.572         135.546         135.524         135.503         135.485         135.468    
          135.453         135.440         135.428         135.418         135.408         135.399         135.392         135.385         133.531         133.534    
          133.538         133.544         133.551         133.559         133.567         133.575         133.585         133.595         133.605         133.616    
          133.629         133.643         133.660         133.679         133.701         133.728         133.759         133.794         133.833         133.876    
          133.921         133.969         134.021         134.065         134.096         134.062         134.092         134.142         134.213         134.290    
          134.373         134.460         134.552         134.649         134.750         134.849         134.946         135.039         135.125         135.204    
          135.276         135.342         135.403         135.458         135.507         135.552         135.591         135.625         135.654         135.677    
          135.694         135.704         135.707         135.702         135.689         135.667         135.641         135.612         135.584         135.558    
          135.535         135.514         135.495         135.478         135.462         135.448         135.435         135.423         135.413         135.403    
          135.394         135.385         135.378         135.370         133.530         133.532         133.537         133.543         133.550         133.558    
          133.567         133.577         133.587         133.598         133.610         133.622         133.636         133.651         133.669         133.689    
          133.711         133.737         133.767         133.801         133.837         133.877         133.920         133.965         134.015         134.058    
          134.088         134.057         134.081         134.120         134.147         134.113         134.145         134.199         134.274         134.356    
          134.444         134.537         134.635         134.738         134.836         134.928         135.018         135.100         135.176         135.246    
          135.310         135.368         135.422         135.470         135.513         135.551         135.584         135.612         135.634         135.650    
          135.660         135.664         135.660         135.649         135.631         135.609         135.585         135.562         135.539         135.519    
          135.500         135.483         135.467         135.453         135.440         135.428         135.416         135.406         135.396         135.387    
          135.378         135.370         135.361         135.353         133.528         133.531         133.535         133.542         133.550         133.558    
          133.568         133.579         133.590         133.602         133.614         133.628         133.643         133.659         133.677         133.698    
          133.720         133.746         133.775         133.807         133.841         133.879         133.920         133.963         134.011         134.064    
          134.110         134.140         134.108         134.134         134.175         134.203         134.167         134.200         134.257         134.337    
          134.423         134.516         134.614         134.716         134.813         134.903         134.990         135.070         135.143         135.210    
          135.272         135.328         135.380         135.427         135.468         135.505         135.537         135.563         135.585         135.601    
          135.611         135.615         135.613         135.605         135.591         135.573         135.554         135.535         135.516         135.499    
          135.483         135.468         135.454         135.441         135.429         135.418         135.407         135.397         135.387         135.378    
          135.369         135.361         135.353         135.345         135.337         133.527         133.530         133.534         133.541         133.549    
          133.559         133.569         133.580         133.592         133.605         133.619         133.634         133.650         133.667         133.685    
          133.706         133.729         133.754         133.782         133.813         133.846         133.882         133.921         133.963         134.008    
          134.058         134.114         134.163         134.194         134.160         134.187         134.231         134.260         134.222         134.256    
          134.316         134.400         134.490         134.587         134.688         134.784         134.873         134.957         135.035         135.106    
          135.171         135.230         135.285         135.335         135.380         135.420         135.456         135.486         135.512         135.533    
          135.548         135.559         135.564         135.563         135.558         135.548         135.535         135.520         135.505         135.491    
          135.476         135.463         135.451         135.439         135.428         135.417         135.406         135.396         135.387         135.377    
          135.367         135.359         135.351         135.343         135.337         135.330         135.323         133.526         133.529         133.534    
          133.541         133.550         133.560         133.571         133.582         133.595         133.609         133.624         133.639         133.655    
          133.673         133.692         133.713         133.736         133.761         133.788         133.818         133.850         133.885         133.922    
          133.963         134.006         134.054         134.107         134.165         134.215         134.249         134.212         134.239         134.286    
          134.317         134.275         134.311         134.374         134.461         134.556         134.656         134.752         134.839         134.922    
          134.998         135.067         135.130         135.187         135.240         135.289         135.332         135.371         135.406         135.435    
          135.460         135.480         135.496         135.506         135.512         135.514         135.511         135.505         135.496         135.486    
          135.474         135.463         135.452         135.441         135.431         135.421         135.412         135.402         135.393         135.384    
          135.374         135.365         135.356         135.347         135.340         135.334         135.328         135.322         135.317         135.312    
          133.526         133.528         133.534         133.541         133.550         133.560         133.572         133.585         133.598         133.612    
          133.628         133.644         133.661         133.679         133.698         133.719         133.742         133.766         133.793         133.822    
          133.854         133.888         133.924         133.963         134.005         134.051         134.101         134.155         134.215         134.268    
          134.302         134.263         134.291         134.341         134.373         134.329         134.366         134.433         134.525         134.623    
          134.718         134.804         134.885         134.959         135.027         135.088         135.144         135.195         135.242         135.285    
          135.322         135.356         135.384         135.409         135.429         135.444         135.455         135.462         135.465         135.465    
          135.462         135.457         135.451         135.443         135.435         135.427         135.418         135.410         135.402         135.394    
          135.386         135.378         135.370         135.360         135.351         135.343         135.336         135.329         135.324         135.319    
          135.314         135.310         135.308         133.526         133.528         133.534         133.541         133.551         133.561         133.573    
          133.587         133.601         133.615         133.631         133.648         133.665         133.683         133.703         133.724         133.747    
          133.771         133.798         133.826         133.857         133.891         133.926         133.964         134.004         134.048         134.096    
          134.147         134.204         134.265         134.320         134.356         134.315         134.344         134.397         134.431         134.384    
          134.423         134.495         134.591         134.685         134.771         134.849         134.921         134.987         135.047         135.102    
          135.152         135.197         135.239         135.275         135.308         135.336         135.359         135.379         135.395         135.407    
          135.415         135.419         135.421         135.421         135.420         135.416         135.412         135.407         135.401         135.395    
          135.389         135.382         135.376         135.369         135.362         135.354         135.345         135.337         135.330         135.323    
          135.318         135.314         135.309         135.306         135.303         135.302         133.526         133.529         133.534         133.542    
          133.552         133.563         133.575         133.588         133.603         133.618         133.635         133.651         133.669         133.687    
          133.707         133.728         133.751         133.775         133.801         133.830         133.860         133.893         133.928         133.965    
          134.004         134.047         134.092         134.142         134.195         134.253         134.317         134.374         134.412         134.366    
          134.404         134.470         134.560         134.652         134.738         134.815         134.884         134.948         135.007         135.061    
          135.110         135.155         135.195         135.230         135.262         135.289         135.313         135.333         135.349         135.361    
          135.371         135.377         135.381         135.383         135.384         135.383         135.381         135.379         135.375         135.371    
          135.367         135.362         135.357         135.351         135.344         135.336         135.329         135.322         135.316         135.311    
          135.307         135.303         135.300         135.298         135.296         135.295         133.527         133.530         133.535         133.543    
          133.553         133.564         133.577         133.590         133.605         133.621         133.637         133.654         133.672         133.691    
          133.710         133.731         133.754         133.778         133.805         133.833         133.863         133.895         133.929         133.966    
          134.004         134.046         134.090         134.138         134.189         134.244         134.304         134.358         134.394         134.352    
          134.387         134.447         134.532         134.621         134.706         134.782         134.850         134.913         134.971         135.023    
          135.072         135.115         135.154         135.188         135.219         135.246         135.269         135.289         135.306         135.319    
          135.330         135.338         135.344         135.347         135.350         135.351         135.352         135.351         135.350         135.347    
          135.344         135.341         135.336         135.331         135.325         135.319         135.313         135.307         135.303         135.300    
          135.297         135.294         135.291         135.290         135.288         135.288         133.528         133.531         133.537         133.545    
          133.554         133.566         133.578         133.592         133.607         133.622         133.639         133.657         133.674         133.693    
          133.713         133.734         133.756         133.781         133.807         133.835         133.865         133.897         133.931         133.967    
          134.005         134.046         134.089         134.135         134.185         134.238         134.295         134.345         134.378         134.342    
          134.369         134.416         134.447         134.405         134.441         134.506         134.592         134.675         134.751         134.818    
          134.880         134.937         134.988         135.035         135.077         135.115         135.149         135.179         135.205         135.229    
          135.249         135.266         135.280         135.292         135.302         135.309         135.314         135.318         135.321         135.324    
          135.325         135.325         135.324         135.322         135.319         135.316         135.312         135.307         135.302         135.298    
          135.294         135.292         135.289         135.287         135.285         135.283         135.282         135.281         135.281         133.528    
          133.533         133.539         133.547         133.557         133.567         133.580         133.593         133.608         133.624         133.641    
          133.658         133.676         133.695         133.715         133.736         133.758         133.783         133.809         133.837         133.867    
          133.898         133.932         133.967         134.005         134.045         134.088         134.134         134.182         134.232         134.287    
          134.346         134.396         134.431         134.390         134.424         134.483         134.563         134.644         134.720         134.788    
          134.849         134.905         134.955         135.001         135.042         135.079         135.112         135.141         135.168         135.191    
          135.211         135.229         135.244         135.257         135.268         135.276         135.283         135.288         135.293         135.297    
          135.299         135.301         135.302         135.301         135.299         135.297         135.294         135.292         135.289         135.286    
          135.283         135.281         135.280         135.278         135.277         135.275         135.274         135.274         135.273         133.536    
          133.542         133.550         133.559         133.570         133.582         133.595         133.609         133.625         133.641         133.659    
          133.677         133.696         133.716         133.737         133.760         133.784         133.810         133.838         133.868         133.899    
          133.932         133.968         134.005         134.045         134.087         134.132         134.178         134.227         134.279         134.334    
          134.382         134.414         134.376         134.407         134.462         134.537         134.615         134.690         134.759         134.820    
          134.876         134.925         134.968         135.008         135.044         135.077         135.106         135.133         135.156         135.177    
          135.195         135.211         135.225         135.237         135.246         135.254         135.261         135.267         135.272         135.276    
          135.279         135.281         135.281         135.281         135.281         135.280         135.279         135.277         135.276         135.274    
          135.272         135.271         135.270         135.269         135.268         135.267         135.267         135.267         133.547         133.554    
          133.563         133.573         133.584         133.597         133.610         133.626         133.642         133.659         133.677         133.696    
          133.716         133.738         133.761         133.785         133.811         133.839         133.868         133.899         133.932         133.967    
          134.004         134.044         134.085         134.129         134.174         134.222         134.272         134.314         134.337         134.308    
          134.334         134.368         134.398         134.362         134.392         134.442         134.512         134.587         134.663         134.731    
          134.793         134.848         134.896         134.939         134.978         135.012         135.028         134.999         135.014         135.046    
          135.058         135.031         135.047         135.074         135.101         135.124         135.146         135.165         135.181         135.196    
          135.209         135.220         135.229         135.237         135.243         135.249         135.255         135.259         135.262         135.264    
          135.266         135.267         135.267         135.268         135.267         135.267         135.266         135.265         135.264         135.263    
          135.262         135.261         135.261         135.260         135.260         133.559         133.567         133.576         133.587         133.599    
          133.612         133.626         133.642         133.659         133.677         133.696         133.716         133.738         133.761         133.785    
          133.811         133.839         133.868         133.899         133.932         133.966         134.003         134.041         134.082         134.125    
          134.169         134.215         134.263         134.303         134.328         134.300         134.322         134.356         134.384         134.351    
          134.375         134.415         134.440         134.406         134.435         134.490         134.563         134.638         134.706         134.767    
          134.822         134.870         134.912         134.948         134.964         134.935         134.952         134.983         135.000         134.969    
          134.986         135.016         135.032         135.002         135.018         135.047         135.057         135.033         135.046         135.071    
          135.095         135.117         135.137         135.154         135.170         135.184         135.196         135.206         135.215         135.223    
          135.230         135.236         135.241         135.245         135.248         135.251         135.253         135.255         135.256         135.257    
          135.258         135.258         135.257         135.257         135.256         135.255         135.254         135.254         135.254         135.253    
          133.573         133.581         133.590         133.601         133.613         133.627         133.643         133.659         133.677         133.696    
          133.716         133.737         133.760         133.785         133.811         133.838         133.868         133.898         133.930         133.964    
          134.000         134.038         134.077         134.119         134.162         134.207         134.254         134.302         134.354         134.399    
          134.428         134.395         134.420         134.463         134.492         134.455         134.483         134.532         134.564         134.523    
          134.554         134.606         134.636         134.595         134.626         134.675         134.702         134.665         134.692         134.737    
          134.763         134.726         134.752         134.794         134.816         134.783         134.805         134.843         134.861         134.831    
          134.850         134.885         134.901         134.873         134.890         134.922         134.939         134.911         134.926         134.956    
          134.973         134.944         134.961         134.989         135.004         134.977         134.992         135.019         135.032         135.006    
          135.021         135.045         135.069         135.091         135.111         135.129         135.145         135.160         135.173         135.185    
          135.195         135.204         135.212         135.219         135.225         135.229         135.233         135.236         135.239         135.242    
          135.244         135.246         135.248         135.249         135.249         135.249         135.249         135.248         135.247         135.247    
          135.247         135.247         133.586         133.594         133.604         133.616         133.629         133.643         133.659         133.676    
          133.695         133.715         133.736         133.759         133.783         133.810         133.837         133.866         133.896         133.928    
          133.961         133.996         134.033         134.071         134.112         134.154         134.197         134.243         134.291         134.341    
          134.397         134.458         134.526         134.596         134.663         134.725         134.779         134.825         134.866         134.903    
          134.933         134.949         134.926         134.939         134.965         134.980         134.955         134.968         134.994         135.008    
          134.982         134.996         135.021         135.030         135.009         135.021         135.044         135.066         135.087         135.106    
          135.123         135.138         135.152         135.164         135.175         135.186         135.195         135.203         135.209         135.215    
          135.219         135.223         135.226         135.229         135.232         135.235         135.237         135.239         135.240         135.241    
          135.241         135.241         135.241         135.240         135.240         135.240         133.600         133.609         133.619         133.631    
          133.645         133.660         133.676         133.694         133.713         133.735         133.757         133.782         133.807         133.835    
          133.863         133.893         133.924         133.956         133.990         134.027         134.064         134.103         134.143         134.186    
          134.231         134.278         134.329         134.384         134.444         134.511         134.580         134.646         134.707         134.761    
          134.807         134.847         134.884         134.917         134.947         134.971         134.985         134.963         134.976         134.998    
          135.009         134.989         135.000         135.022         135.044         135.065         135.084         135.101         135.117         135.132    
          135.144         135.156         135.167         135.177         135.186         135.194         135.201         135.206         135.210         135.213    
          135.216         135.220         135.223         135.226         135.229         135.231         135.232         135.233         135.233         135.233    
          135.234         135.233         135.233         133.615         133.624         133.635         133.647         133.661         133.676         133.693    
          133.712         133.733         133.755         133.779         133.805         133.832         133.860         133.889         133.920         133.951    
          133.984         134.019         134.055         134.093         134.132         134.173         134.217         134.264         134.315         134.370    
          134.430         134.496         134.565         134.631         134.691         134.745         134.791         134.832         134.868         134.901    
          134.927         134.939         134.919         134.932         134.953         134.965         134.945         134.957         134.979         135.002    
          135.024         135.045         135.064         135.082         135.098         135.112         135.125         135.137         135.148         135.159    
          135.169         135.178         135.186         135.192         135.197         135.201         135.204         135.208         135.212         135.215    
          135.219         135.221         135.223         135.225         135.225         135.226         135.226         135.226         135.227         133.630    
          133.639         133.650         133.663         133.677         133.693         133.711         133.731         133.753         133.777         133.802    
          133.828         133.856         133.885         133.914         133.945         133.977         134.011         134.046         134.082         134.120    
          134.159         134.201         134.249         134.300         134.355         134.415         134.481         134.550         134.616         134.676    
          134.730         134.777         134.818         134.855         134.887         134.911         134.924         134.906         134.916         134.936    
          134.947         134.928         134.940         134.961         134.984         135.005         135.026         135.046         135.064         135.080    
          135.094         135.107         135.119         135.130         135.141         135.151         135.162         135.170         135.178         135.183    
          135.188         135.192         135.196         135.201         135.205         135.208         135.212         135.214         135.216         135.217    
          135.218         135.219         135.219         135.219         133.645         133.655         133.666         133.679         133.694         133.711    
          133.730         133.751         133.774         133.799         133.825         133.852         133.880         133.909         133.938         133.969    
          134.002         134.035         134.070         134.107         134.145         134.186         134.231         134.283         134.338         134.397    
          134.464         134.533         134.600         134.662         134.716         134.763         134.806         134.843         134.874         134.900    
          134.920         134.931         134.914         134.925         134.945         134.966         134.988         135.009         135.029         135.047    
          135.063         135.078         135.090         135.102         135.113         135.123         135.133         135.144         135.154         135.162    
          135.170         135.175         135.181         135.185         135.190         135.194         135.198         135.202         135.205         135.207    
          135.209         135.210         135.211         135.212         135.212         133.661         133.671         133.682         133.696         133.712    
          133.729         133.749         133.772         133.796         133.821         133.847         133.875         133.903         133.932         133.962    
          133.993         134.025         134.058         134.093         134.130         134.171         134.215         134.264         134.319         134.378    
          134.443         134.514         134.584         134.646         134.700         134.747         134.791         134.831         134.861         134.886    
          134.906         134.917         134.900         134.911         134.929         134.950         134.971         134.993         135.013         135.032    
          135.049         135.063         135.076         135.087         135.098         135.108         135.118         135.128         135.138         135.148    
          135.156         135.163         135.169         135.174         135.179         135.184         135.188         135.192         135.196         135.199    
          135.201         135.203         135.204         135.205         135.205         133.677         133.687         133.699         133.713         133.730    
          133.749         133.770         133.793         133.817         133.843         133.870         133.897         133.926         133.954         133.984    
          134.015         134.046         134.080         134.116         134.155         134.198         134.247         134.300         134.357         134.422    
          134.493         134.564         134.627         134.680         134.730         134.776         134.815         134.847         134.871         134.891    
          134.902         134.884         134.895         134.914         134.934         134.956         134.977         134.998         135.017         135.035    
          135.050         135.063         135.074         135.085         135.095         135.105         135.115         135.124         135.134         135.143    
          135.150         135.157         135.163         135.169         135.174         135.179         135.183         135.187         135.190         135.193    
          135.195         135.197         135.198         135.198         133.694         133.704         133.717         133.732         133.749         133.769    
          133.791         133.814         133.839         133.865         133.892         133.920         133.948         133.976         134.006         134.036    
          134.068         134.103         134.141         134.183         134.230         134.282         134.339         134.402         134.471         134.541    
          134.604         134.658         134.711         134.757         134.795         134.828         134.853         134.874         134.885         134.866    
          134.877         134.897         134.919         134.941         134.963         134.984         135.003         135.021         135.037         135.051    
          135.062         135.073         135.084         135.093         135.103         135.113         135.122         135.131         135.139         135.147    
          135.150         135.142         135.146         135.154         135.157         135.149         135.152         135.160         135.163         135.155    
          135.158         135.166         135.168         135.161         135.163         135.171         135.173         135.167         135.169         135.175    
          135.177         135.171         135.173         135.180         135.181         135.175         135.177         135.183         135.185         135.179    
          135.181         135.186         135.187         135.183         135.184         135.187         135.189         135.191         135.191         133.711    
          133.722         133.736         133.751         133.769         133.790         133.812         133.836         133.861         133.888         133.914    
          133.942         133.969         133.998         134.027         134.058         134.092         134.130         134.171         134.217         134.268    
          134.324         134.386         134.451         134.518         134.579         134.632         134.686         134.733         134.773         134.805    
          134.832         134.854         134.865         134.845         134.856         134.879         134.903         134.927         134.949         134.971    
          134.991         135.009         135.026         135.040         135.052         135.063         135.074         135.083         135.093         135.102    
          135.107         135.098         135.103         135.112         135.116         135.108         135.111         135.121         135.125         135.117    
          135.120         135.130         135.133         135.125         135.128         135.137         135.140         135.133         135.136         135.144    
          135.150         135.156         135.161         135.166         135.171         135.173         135.168         135.170         135.175         135.177    
          135.172         135.173         135.179         135.180         135.175         135.177         135.182         135.182         135.178         135.179    
          135.182         135.184         135.185         133.730         133.741         133.755         133.771         133.790         133.811         133.834    
          133.858         133.884         133.910         133.937         133.964         133.991         134.020         134.050         134.084         134.121    
          134.162         134.208         134.258         134.314         134.374         134.435         134.495         134.555         134.608         134.661    
          134.709         134.748         134.782         134.808         134.820         134.798         134.810         134.833         134.844         134.824    
          134.834         134.859         134.887         134.913         134.937         134.960         134.981         135.000         135.017         135.031    
          135.043         135.055         135.066         135.075         135.079         135.072         135.076         135.085         135.089         135.082    
          135.085         135.094         135.098         135.091         135.095         135.103         135.112         135.120         135.128         135.135    
          135.142         135.148         135.154         135.159         135.163         135.167         135.171         135.174         135.176         135.172    
          135.173         135.177         135.178         135.174         135.175         135.178         135.180         133.749         133.760         133.774    
          133.791         133.811         133.832         133.855         133.880         133.906         133.932         133.959         133.986         134.014    
          134.044         134.078         134.115         134.156         134.201         134.252         134.308         134.366         134.423         134.478    
          134.533         134.587         134.637         134.684         134.725         134.760         134.786         134.798         134.778         134.790    
          134.813         134.839         134.870         134.899         134.926         134.950         134.971         134.991         135.008         135.023    
          135.036         135.048         135.058         135.063         135.055         135.060         135.068         135.073         135.066         135.070    
          135.079         135.088         135.097         135.105         135.113         135.121         135.128         135.135         135.141         135.147    
          135.152         135.157         135.161         135.165         135.168         135.171         135.172         135.169         135.169         135.173    
          135.173         135.170         135.171         135.174         135.171         133.768         133.780         133.794         133.812         133.832    
          133.854         133.877         133.903         133.928         133.955         133.982         134.009         134.040         134.073         134.110    
          134.152         134.198         134.249         134.303         134.358         134.414         134.467         134.519         134.568         134.616    
          134.661         134.702         134.738         134.766         134.780         134.758         134.769         134.793         134.803         134.783    
          134.796         134.822         134.853         134.885         134.914         134.939         134.962         134.982         135.000         135.015    
          135.029         135.041         135.052         135.057         135.049         135.054         135.063         135.073         135.083         135.091    
          135.099         135.107         135.115         135.122         135.128         135.134         135.140         135.146         135.151         135.155    
          135.159         135.162         135.165         135.167         135.167         133.787         133.799         133.814         133.832         133.853    
          133.876         133.900         133.925         133.951         133.978         134.006         134.037         134.070         134.107         134.149    
          134.195         134.245         134.298         134.352         134.405         134.456         134.506         134.553         134.598         134.641    
          134.681         134.717         134.749         134.773         134.787         134.766         134.780         134.806         134.840         134.872    
          134.902         134.929         134.953         134.974         134.992         135.008         135.022         135.034         135.039         135.031    
          135.037         135.046         135.051         135.043         135.048         135.058         135.069         135.078         135.086         135.094    
          135.102         135.110         135.117         135.123         135.129         135.135         135.140         135.146         135.150         135.154    
          135.158         135.161         135.163         135.164         133.806         133.819         133.835         133.854         133.875         133.899    
          133.924         133.949         133.976         134.004         134.035         134.068         134.105         134.146         134.192         134.241    
          134.293         134.345         134.396         134.446         134.493         134.538         134.581         134.622         134.661         134.697    
          134.731         134.758         134.773         134.753         134.765         134.789         134.803         134.782         134.799         134.827    
          134.861         134.892         134.920         134.944         134.963         134.972         134.960         134.969         134.983         134.990    
          134.980         134.987         135.000         135.006         134.996         135.003         135.015         135.020         135.012         135.018    
          135.027         135.034         135.025         135.031         135.042         135.053         135.064         135.074         135.082         135.090    
          135.098         135.105         135.112         135.118         135.124         135.130         135.136         135.141         135.146         135.151    
          135.155         135.158         135.161         135.163         133.826         133.840         133.856         133.877         133.899         133.923    
          133.949         133.976         134.004         134.034         134.067         134.103         134.145         134.189         134.237         134.287    
          134.338         134.387         134.435         134.480         134.524         134.565         134.604         134.642         134.678         134.714    
          134.748         134.776         134.793         134.772         134.787         134.812         134.826         134.806         134.823         134.851    
          134.883         134.907         134.919         134.903         134.917         134.934         134.943         134.930         134.940         134.955    
          134.965         134.953         134.962         134.978         134.996         135.011         135.025         135.038         135.049         135.060    
          135.070         135.079         135.087         135.094         135.101         135.108         135.114         135.120         135.126         135.132    
          135.138         135.143         135.147         135.152         135.155         133.847         133.862         133.880         133.902         133.926    
          133.951         133.977         134.005         134.035         134.067         134.103         134.143         134.186         134.233         134.282    
          134.331         134.378         134.423         134.467         134.509         134.549         134.587         134.625         134.661         134.697    
          134.734         134.772         134.801         134.819         134.798         134.813         134.837         134.852         134.833         134.848    
          134.870         134.883         134.866         134.880         134.899         134.912         134.897         134.909         134.931         134.953    
          134.973         134.991         135.007         135.021         135.034         135.046         135.057         135.067         135.076         135.084    
          135.091         135.098         135.105         135.111         135.117         135.123         135.129         135.134         135.140         135.144    
          133.871         133.888         133.907         133.930         133.955         133.981         134.009         134.038         134.069         134.103    
          134.141         134.183         134.229         134.276         134.323         134.367         134.410         134.453         134.494         134.534    
          134.572         134.609         134.645         134.682         134.721         134.761         134.798         134.834         134.868         134.899    
          134.926         134.949         134.970         134.988         135.003         135.018         135.031         135.043         135.054         135.065    
          135.073         135.081         135.089         135.095         135.102         135.108         135.114         135.120         135.126         135.130    
          133.898         133.916         133.938         133.962         133.988         134.014         134.042         134.072         134.105         134.141    
          134.181         134.224         134.270         134.314         134.356         134.397         134.438         134.477         134.517         134.556    
          134.594         134.632         134.670         134.710         134.751         134.790         134.828         134.864         134.896         134.923    
          134.947         134.967         134.985         135.001         135.016         135.029         135.040         135.052         135.063         135.072    
          135.080         135.087         135.093         135.099         135.106         135.112         135.116         133.928         133.949         133.972    
          133.997         134.022         134.048         134.077         134.108         134.141         134.179         134.220         134.262         134.304    
          134.344         134.383         134.422         134.460         134.499         134.542         134.582         134.620         134.660         134.702    
          134.744         134.784         134.824         134.861         134.894         134.922         134.945         134.966         134.984         135.000    
          135.014         135.027         135.038         135.048         135.061         135.071         135.079         135.085         135.091         135.095    
          133.964         133.986         134.008         134.031         134.056         134.082         134.111         134.143         134.178         134.216    
          134.255         134.294         134.331         134.368         134.405         134.443         134.481         134.531         134.574         134.613    
          134.653         134.697         134.739         134.780         134.822         134.860         134.894         134.921         134.945         134.965    
          134.983         134.999         135.013         135.025         135.035         135.041         134.002         134.021         134.042         134.063    
          134.088         134.115         134.145         134.178         134.213         134.248         134.284         134.318         134.353         134.387    
          134.428         134.454         134.036         134.052         134.071         134.093         134.119         134.147         134.178         134.210    
          134.242         134.274         134.304         134.340         134.364         134.063         134.075         134.096         134.121         134.148    
          134.178         134.209         134.239         134.265         134.284    

 HEAD WILL BE SAVED ON UNIT 1021 AT END OF TIME STEP   48, STRESS PERIOD    2

 SFR PACKAGE (SFR) STAGES FOR EACH CONTROL VOLUME   PERIOD      2   STEP       48
 -------------------------------------------------------------------------------------------------------------
                                                                                      STREAMBED    STREAMBED  
   NUMBER   CELLID                  STAGE        DEPTH        WIDTH       GWF HEAD   CONDUCTANCE    GRADIENT  
 -------------------------------------------------------------------------------------------------------------
     1      (2,2565)              143.61       0.0000       0.0000       135.17       1016.1       1.0000     
     2      (2,2563)              143.50       0.0000       0.0000       135.17       319.68       1.0000     
     3      (2,2561)              143.45       0.0000       0.0000       135.17       615.17       1.0000     
     4      (2,2560)              143.45       0.0000       0.0000       135.17       955.58       1.0000     
     5      (2,2557)              143.45       0.0000       0.0000       135.17       490.75       1.0000     
     6      (2,2485)              143.45       0.0000       0.0000       135.17       478.66       1.0000     
     7      (2,2484)              143.42       0.0000       0.0000       135.17       1093.8       1.0000     
     8      (2,2481)              143.33       0.0000       0.0000       135.17       60.480       1.0000     
     9      (2,2479)              143.33       0.0000       0.0000       135.18       862.27       1.0000     
     10     (2,2478)              143.33       0.0000       0.0000       135.17       978.05       1.0000     
     11     (2,2399)              143.33       0.0000       0.0000       135.18       371.52       1.0000     
     12     (2,2396)              143.33       0.0000       0.0000       135.18       584.06       1.0000     
     13     (2,2394)              143.28       0.0000       0.0000       135.18       998.78       1.0000     
     14     (2,2393)              143.25       0.0000       0.0000       135.18       98.496       1.0000     
     15     (2,2304)              143.14       0.0000       0.0000       135.18       917.57       1.0000     
     16     (2,2301)              143.14       0.0000       0.0000       135.18       910.66       1.0000     
     17     (2,2300)              143.14       0.0000       0.0000       135.18       65.664       1.0000     
     18     (2,2389)              143.14       0.0000       0.0000       135.18       812.16       1.0000     
     19     (2,2386)              143.07       0.0000       0.0000       135.17       870.91       1.0000     
     20     (2,2385)              143.07       0.0000       0.0000       135.17       278.21       1.0000     
     21     (2,2296)              143.07       0.0000       0.0000       135.18       603.07       1.0000     
     22     (2,2293)              143.07       0.0000       0.0000       135.17       893.38       1.0000     
     23     (2,2292)              143.07       0.0000       0.0000       135.17       884.74       1.0000     
     24     (2,2289)              143.07       0.0000       0.0000       135.17       910.66       1.0000     
     25     (2,2288)              143.07       0.0000       0.0000       135.17       153.79       1.0000     
     26     (2,2286)              143.03       0.0000       0.0000       135.17       781.06       1.0000     
     27     (2,2283)              143.03       0.0000       0.0000       135.17       889.92       1.0000     
     28     (2,2282)              143.03       0.0000       0.0000       135.17       877.82       1.0000     
     29     (2,2279)              143.03       0.0000       0.0000       135.16       884.74       1.0000     
     30     (2,2278)              143.03       0.0000       0.0000       135.16       896.83       1.0000     
     31     (2,2275)              143.03       0.0000       0.0000       135.16       172.80       1.0000     
     32     (2,2277)              143.03       0.0000       0.0000       135.15       730.94       1.0000     
     33     (2,2276)              143.03       0.0000       0.0000       135.15       908.93       1.0000     
     34     (2,2273)              143.03       0.0000       0.0000       135.15       891.65       1.0000     
     35     (2,2272)              143.03       0.0000       0.0000       135.14       454.46       1.0000     
     36     (2,2376)              143.03       0.0000       0.0000       135.14       442.37       1.0000     
     37     (2,2373)              143.03       0.0000       0.0000       135.13       881.28       1.0000     
     38     (2,2372)              143.03       0.0000       0.0000       135.13       881.28       1.0000     
     39     (2,2369)              143.01       0.0000       0.0000       135.12       902.02       1.0000     
     40     (2,2368)              142.55       0.0000       0.0000       135.12       806.98       1.0000     
     41     (2,2370)              142.55       0.0000       0.0000       135.11       82.944       1.0000     
     42     (2,2367)              142.05       0.0000       0.0000       135.11       902.02       1.0000     
     43     (2,2366)              141.75       0.0000       0.0000       135.10       898.56       1.0000     
     44     (2,2363)              141.22       0.0000       0.0000       135.10       876.10       1.0000     
     45     (2,2362)              140.98       0.0000       0.0000       135.09       926.21       1.0000     
     46     (2,2462)              140.62       0.0000       0.0000       135.09       5.1840       1.0000     
     47     (1,2459)              140.43       0.0000       0.0000       135.08       1069.6       1.0000     
     48     (1,2458)              140.43       0.0000       0.0000       135.08       362.88       1.0000     
     49     (1,2460)              140.05       0.0000       0.0000       135.07       713.66       1.0000     
     50     (1,2457)              140.05       0.0000       0.0000       135.07       705.02       1.0000     
     51     (1,2538)              139.72       0.0000       0.0000       135.06       412.99       1.0000     
     52     (1,2537)              139.72       0.0000       0.0000       135.06       983.23       1.0000     
     53     (1,2539)              139.56       0.0000       0.0000       135.06       190.08       1.0000     
     54     (1,2536)              139.54       0.0000       0.0000       135.05       886.46       1.0000     
     55     (1,2614)              139.39       0.0000       0.0000       135.05       635.90       1.0000     
     56     (1,2613)              139.36       0.0000       0.0000       135.04       435.46       1.0000     
     57     (1,2615)              139.20       0.0000       0.0000       135.04       955.58       1.0000     
     58     (1,2682)              139.02       0.0000       0.0000       135.04       884.74       1.0000     
     59     (1,2684)              138.96       0.0000       0.0000       135.04       539.14       1.0000     
     60     (1,2681)              138.89       0.0000       0.0000       135.03       447.55       1.0000     
     61     (1,2762)              138.89       0.0000       0.0000       135.03       857.09       1.0000     
     62     (1,2761)              138.84       0.0000       0.0000       135.02       364.61       1.0000     
     63     (1,2763)              138.84       0.0000       0.0000       135.02       627.26       1.0000     
     64     (1,2760)              138.65       0.0000       0.0000       135.01       978.05       1.0000     
     65     (1,2759)              138.58       0.0000       0.0000       135.01       883.01       1.0000     
     66     (1,2756)              138.49       0.0000       0.0000       135.00       903.74       1.0000     
     67     (1,2755)              138.33       0.0000       0.0000       134.99       896.83       1.0000     
     68     (1,2752)              138.33       0.0000       0.0000       134.98       910.66       1.0000     
     69     (1,2751)              138.33       0.0000       0.0000       134.98       926.21       1.0000     
     70     (1,2748)              138.33       0.0000       0.0000       134.97       38.016       1.0000     
     71     (1,2831)              138.33       0.0000       0.0000       134.96       926.21       1.0000     
     72     (1,2830)              138.33       0.0000       0.0000       134.95       927.94       1.0000     
     73     (1,2827)              138.33       0.0000       0.0000       134.94       336.96       1.0000     
     74     (1,2829)              138.33       0.0000       0.0000       134.94       585.79       1.0000     
     75     (1,2828)              138.33       0.0000       0.0000       134.93       910.66       1.0000     
     76     (1,2825)              138.33       0.0000       0.0000       134.92       910.66       1.0000     
     77     (1,2824)              138.33       0.0000       0.0000       134.91       321.41       1.0000     
     78     (1,2895)              138.33       0.0000       0.0000       134.90       589.25       1.0000     
     79     (1,2892)              138.33       0.0000       0.0000       134.88       900.29       1.0000     
     80     (1,2891)              138.33       0.0000       0.0000       134.88       927.94       1.0000     
     81     (1,2888)              138.33       0.0000       0.0000       134.85       872.64       1.0000     
     82     (2,2887)              138.33       0.0000       0.0000       134.84       1164.7       1.0000     
     83     (1,2884)              138.33       0.0000       0.0000       134.82       190.08       1.0000     
     84     (1,2819)              138.33       0.0000       0.0000       134.83       1031.6       1.0000     
     85     (1,2818)              138.24       0.0000       0.0000       134.82       190.08       1.0000     
     86     (1,2816)              138.24       0.0000       0.0000       134.83       1031.6       1.0000     
     87     (1,2813)              137.98       0.0000       0.0000       134.81       190.08       1.0000     
     88     (1,2739)              137.98       0.0000       0.0000       134.82       1031.6       1.0000     
     89     (1,2738)              137.56       0.0000       0.0000       134.80       190.08       1.0000     
     90     (1,2736)              137.56       0.0000       0.0000       134.81       1031.6       1.0000     
     91     (1,2733)              137.21       0.0000       0.0000       134.80       190.08       1.0000     
     92     (1,2667)              137.21       0.0000       0.0000       134.80       1031.6       1.0000     
     93     (1,2666)              137.20       0.0000       0.0000       134.79       190.08       1.0000     
     94     (1,2664)              137.11       0.0000       0.0000       134.80       1099.0       1.0000     
     95     (1,2600)              136.90       0.0000       0.0000       134.80       421.63       1.0000     
     96     (1,2597)              136.63       0.0000       0.0000       134.79       644.54       1.0000     
     97     (1,2595)              136.63       0.0000       0.0000       134.80       981.50       1.0000     
     98     (1,2520)              136.63       0.0000       0.0000       134.81       297.22       1.0000     
     99     (1,2519)              136.63       0.0000       0.0000       134.80       803.52       1.0000     
    100     (1,2517)              136.63       0.0000       0.0000       134.80       983.23       1.0000     
    101     (1,2436)              136.63       0.0000       0.0000       134.81       1054.1       1.0000     
    102     (1,2434)              136.63       0.0000       0.0000       134.82       632.45       1.0000     
    103     (1,2435)              136.63       0.0000       0.0000       134.83       1263.2       1.0000     
    104     (1,2438)              136.63       0.0000       0.0000       134.84       336.96       1.0000     
    105     (1,2344)              136.63       0.0000       0.0000       134.85       910.66       1.0000     
    106     (1,2342)              136.63       0.0000       0.0000       134.85       615.17       1.0000     
    107     (1,2343)              136.63       0.0000       0.0000       134.86       457.92       1.0000     
    108     (1,2251)              136.60       0.0000       0.0000       134.87       1016.1       1.0000     
    109     (1,2249)              136.49       0.0000       0.0000       134.88       864.00       1.0000     
    110     (1,2183)              136.36       0.0000       0.0000       134.89       934.85       1.0000     
    111     (1,2181)              136.30       0.0000       0.0000       134.89       864.00       1.0000     
    112     (1,2114)              136.30       0.0000       0.0000       134.90       872.64       1.0000     
    113     (1,2112)              136.30       0.0000       0.0000       134.91       867.46       1.0000     
    114     (1,2044)              136.30       0.0000       0.0000       134.92       430.27       1.0000     
    115     (1,2043)              136.30       0.0000       0.0000       134.91       546.05       1.0000     
    116     (1,2041)              136.28       0.0000       0.0000       134.91       1021.2       1.0000     
    117     (1,1972)              136.28       0.0000       0.0000       134.92       148.61       1.0000     
    118     (1,1969)              136.05       0.0000       0.0000       134.91       943.49       1.0000     
    119     (1,1967)              136.05       0.0000       0.0000       134.91       508.03       1.0000     
    120     (1,1966)              135.98       0.0000       0.0000       134.90       565.06       1.0000     
    121     (1,1893)              135.90       0.0000       0.0000       134.91       855.36       0.98949    
    122     (1,1894)              135.90       0.0000       0.0000       134.92       200.45       0.97800    
    123     (1,1892)              135.90       0.0000       0.0000       134.93       888.19       0.97114    
    124     (1,1895)              135.89       0.0000       0.0000       134.94       888.19       0.94793    
    125     (1,1896)              135.89       0.0000       0.0000       134.95       739.58       0.93621    
    126     (1,1819)              135.89       0.0000       0.0000       134.96       205.63       0.92692    
    127     (1,1822)              135.88       0.0000       0.0000       134.98       924.48       0.90436    
    128     (1,1820)              135.64       0.0000       0.0000       134.98       907.20       0.65634    
    129     (1,1745)              135.64       0.0000       0.0000       134.99       1152.6       0.64673    
    130     (1,1742)              135.56       0.0000       0.0000       134.98       888.19       0.57893    
    131     (1,1741)              135.56       0.0000       0.0000       134.97       926.21       0.59163    
    132     (1,1738)              135.47       0.0000       0.0000       134.96       910.66       0.51488    
    133     (1,1737)              135.47       0.0000       0.0000       134.94       433.73       0.52609    
    134     (1,1735)              135.44       0.0000       0.0000       134.95       860.54       0.48733    
    135     (1,1732)              135.44       0.0000       0.0000       134.94       229.82       0.50176    
    136     (1,1653)              135.38       0.0000       0.0000       134.95       993.60       0.43185    
    137     (1,1651)              135.36       0.0000       0.0000       134.96       1054.1       0.40130    
    138     (1,1654)              135.36       0.0000       0.0000       134.97       870.91       0.38691    
    139     (1,1655)              135.32       0.0000       0.0000       134.99       974.59       0.33348    
    140     (1,1658)              135.32       0.0000       0.0000       135.00       273.02       0.32067    
    141     (1,1548)              135.32       0.0000       0.0000       135.01       903.74       0.30896    
    142     (1,1546)              135.32       0.0000       0.0000       135.02       571.97       0.29625    
    143     (1,1543)              135.32       0.0000       0.0000       135.01       746.50       0.30998    
    144     (1,1453)              135.32       0.0000       0.0000       135.02       342.14       0.29702    
    145     (1,1452)              135.32       0.0000       0.0000       135.01       914.11       0.31108    
    146     (1,1449)              135.32       0.0000       0.0000       134.99       914.11       0.32589    
    147     (1,1448)              135.32       0.0000       0.0000       134.98       302.40       0.34022    
    148     (1,1538)              135.28       0.0000       0.0000       134.97       668.74       0.31377    
    149     (1,1535)              135.28       0.0000       0.0000       134.95       969.41       0.33128    
    150     (1,1537)              135.26       0.0000       0.0000       134.94       955.58       0.32165    
    151     (1,1647)              135.26       0.0000       0.0000       134.93       910.66       0.33283    
    152     (1,1649)              135.26       0.0000       0.0000       134.92       931.39       0.34405    
    153     (1,1648)              135.26       0.0000       0.0000       134.90       896.83       0.35859    
    154     (1,1645)              135.21       0.0000       0.0000       134.88       940.03       0.32856    
    155     (1,1644)              135.13       0.0000       0.0000       134.87       648.00       0.26450    
    156     (1,1642)              135.06       0.0000       0.0000       134.88       421.63       0.18466    
    157     (1,1639)              135.06       0.0000       0.0000       134.85       933.12       0.20735    
    158     (1,1638)              135.06       0.0000       0.0000       134.83       400.90       0.22510    
    159     (1,1640)              135.06       0.0000       0.0000       134.83       587.52       0.23472    
    160     (1,1637)              135.06       0.0000       0.0000       134.80       910.66       0.26007    
    161     (1,1636)              135.06       0.0000       0.0000       134.78       872.64       0.28027    
    162     (1,1633)              135.06       0.0000       0.0000       134.75       865.73       0.30840    
    163     (1,1632)              135.05       0.0000       0.0000       134.73       870.91       0.32044    
    164     (1,1629)              135.05       0.0000       0.0000       134.70       874.37       0.35212    
    165     (1,1628)              135.05       0.0000       0.0000       134.67       865.73       0.37743    
    166     (1,1625)              135.00       0.0000       0.0000       134.64       870.91       0.36178    
    167     (1,1624)              134.97       0.0000       0.0000       134.61       879.55       0.35810    
    168     (1,1621)              134.97       0.0000       0.0000       134.58       881.28       0.39367    
    169     (1,1620)              134.97       0.0000       0.0000       134.55       900.29       0.42067    
    170     (1,1617)              134.97       0.0000       0.0000       134.51       487.30       0.45635    
    171     (1,1615)              134.90       0.0000       0.0000       134.52       461.38       0.37963    
    172     (1,1614)              134.90       0.0000       0.0000       134.49       946.94       0.40579    
    173     (1,1611)              134.90       0.0000       0.0000       134.46       589.25       0.44121    
    174     (1,1525)              134.89       0.0000       0.0000       134.46       406.08       0.42698    
    175     (1,1524)              134.77       0.0000       0.0000       134.43       965.95       0.34061    
    176     (1,1521)              134.77       0.0000       0.0000       134.39       577.15       0.37641    
    177     (1,1519)              134.77       0.0000       0.0000       134.40       428.54       0.36965    
    178     (1,1518)              134.77       0.0000       0.0000       134.37       905.47       0.40253    
    179     (1,1515)              134.77       0.0000       0.0000       134.33       539.14       0.43509    
    180     (1,1431)              134.77       0.0000       0.0000       134.34       864.00       0.43275    
    181     (1,1429)              134.77       0.0000       0.0000       134.34       774.14       0.43347    
    182     (1,1432)              134.73       0.0000       0.0000       134.37       502.85       0.35850    
    183     (1,1353)              134.72       0.0000       0.0000       134.37       907.20       0.34680    
    184     (1,1351)              134.72       0.0000       0.0000       134.37       883.01       0.34729    
    185     (1,1274)              134.72       0.0000       0.0000       134.37       902.02       0.35114    
    186     (1,1272)              134.71       0.0000       0.0000       134.36       900.29       0.34775    
    187     (1,1194)              134.38       0.0000       0.0000       134.35       927.94       3.37021E-02
    188     (1,1192)              134.27       4.12821E-03  2.0000       134.32       853.63      -4.53369E-02
    189     (1,1189)              134.28       6.29718E-03  2.0000       134.28       122.69      -6.73349E-03
    190     (1,1111)              134.18       8.95798E-03  2.0000       134.24       991.87      -6.22082E-02
    191     (1,1109)              134.18       1.24420E-02  2.0000       134.25       628.99      -6.50436E-02
    192     (1,1108)              134.18       1.40753E-02  2.0000       134.22       361.15      -4.05117E-02
    193     (1,1030)              134.19       1.53589E-02  2.0000       134.22       979.78      -3.28351E-02
    194     (1,1028)              134.19       1.70418E-02  2.0000       134.22       889.92      -3.73548E-02
    195     (1,950)               134.19       1.80884E-02  2.0000       134.24       186.62      -5.19485E-02
    196     (1,947)               134.09       1.97320E-02  2.0000       134.16       813.89      -7.51113E-02
    197     (1,945)               134.09       2.21193E-02  2.0000       134.18       546.05      -8.95900E-02
    198     (1,944)               134.09       2.40214E-02  2.0000       134.15       848.45      -5.26470E-02
    199     (1,866)               134.10       2.54137E-02  2.0000       134.17       354.24      -7.63793E-02
    200     (1,863)               134.10       2.65446E-02  2.0000       134.14       803.52      -4.12863E-02
    201     (1,861)               134.10       2.77837E-02  2.0000       134.16       608.26      -5.72206E-02
    202     (1,860)               134.10       2.87095E-02  2.0000       134.13       521.86      -3.32168E-02
    203     (1,782)               134.10       2.96113E-02  2.0000       134.14       822.53      -4.19903E-02
    204     (1,779)               134.09       3.03351E-02  2.0000       134.12       252.29      -3.11621E-02
    205     (1,777)               134.09       3.11111E-02  2.0000       134.13       1130.1      -3.39395E-02
    206     (1,700)               134.09       3.17579E-02  2.0000       134.15       12.096      -6.30109E-02
    207     (1,699)               134.09       3.21623E-02  2.0000       134.11       1138.8      -2.10468E-02
    208     (1,697)               134.09       3.26597E-02  2.0000       134.13       169.34      -3.97268E-02
    209     (1,694)               134.09       3.27926E-02  2.0000       134.09       927.94      -1.65217E-03
    210     (1,618)               134.02       3.33043E-02  2.0000       134.09       483.84      -6.29524E-02
    211     (1,617)               134.02       3.40602E-02  2.0000       134.05       578.88      -3.00752E-02
    212     (1,615)               134.02       3.47409E-02  2.0000       134.06       855.36      -3.07502E-02
    213     (1,612)               134.03       3.51597E-02  2.0000       134.03       361.15      -2.43196E-03
    214     (1,537)               134.03       3.50619E-02  2.0000       134.02       936.58       7.73122E-03
    215     (1,535)               133.86       3.60802E-02  2.0000       133.97       627.26      -0.11815    
    216     (1,534)               133.86       3.83536E-02  2.0000       133.94       976.32      -8.16855E-02
    217     (1,531)               133.86       3.95151E-02  2.0000       133.94       15.552      -8.11116E-02
    218     (1,457)               133.86       4.03852E-02  2.0000       133.92       1042.0      -5.80338E-02
    219     (1,455)               133.86       4.20438E-02  2.0000       133.92       1024.7      -5.82456E-02
    220     (1,382)               133.86       4.33147E-02  2.0000       133.95       388.80      -8.88760E-02
    221     (1,381)               133.86       4.44156E-02  2.0000       133.92       927.94      -5.23528E-02
    222     (1,378)               133.87       4.54743E-02  2.0000       133.90       889.92      -3.67206E-02
    223     (1,377)               133.87       4.62310E-02  2.0000       133.89       919.30      -2.84730E-02
    224     (1,375)               133.87       4.66663E-02  2.0000       133.92       160.70      -4.96660E-02
    225     (1,372)               133.87       4.71004E-02  2.0000       133.89       1038.5      -2.53109E-02
    226     (1,371)               133.87       4.74983E-02  2.0000       133.88       326.59      -1.62632E-02
    227     (1,299)               133.87       4.77717E-02  2.0000       133.89       701.57      -2.35163E-02
    228     (1,296)               133.87       4.80689E-02  2.0000       133.88       907.20      -8.05442E-03
    229     (1,294)               133.87       4.81895E-02  2.0000       133.89       119.23      -1.99684E-02
    230     (1,293)               133.87       4.82746E-02  2.0000       133.87       921.02      -4.85161E-03
    231     (1,290)               133.87       4.82095E-02  2.0000       133.86       884.74       1.09742E-02
    232     (1,289)               133.87       4.78216E-02  2.0000       133.84       908.93       2.35437E-02
    233     (1,286)               133.87       4.74724E-02  2.0000       133.81       114.05       5.66758E-02
    234     (1,250)               133.87       4.69051E-02  2.0000       133.82       789.70       4.87804E-02
    235     (1,249)               133.87       4.53688E-02  2.0000       133.78       979.78       8.31439E-02
    236     (1,246)               133.63       4.44765E-02  2.0000       133.67       387.07      -3.35745E-02
    237     (1,244)               133.56       4.51325E-02  2.0000       133.61       644.54      -5.78004E-02
    238     (1,243)               133.33       4.73796E-02  2.0000       133.50       786.24      -0.17622    
    239     (1,209)               133.33       4.99403E-02  2.0000       133.50       402.62      -0.17055    
    240     (1,206)               133.33       5.19234E-02  2.0000       133.45       819.07      -0.11815    
    241     (1,204)               133.33       5.36862E-02  2.0000       133.47       402.62      -0.13379    
    242     (1,203)               133.34       5.52225E-02  2.0000       133.43       819.07      -9.78440E-02
    243     (1,171)               133.34       5.66469E-02  2.0000       133.45       399.17      -0.11610    
    244     (1,168)               133.34       5.80879E-02  2.0000       133.42       1017.8      -8.23325E-02
    245     (1,166)               133.34       5.90815E-02  2.0000       133.47       57.024      -0.12636    
    246     (1,165)               133.34       6.01087E-02  2.0000       133.42       1164.7      -7.55123E-02
    247     (1,135)               133.34       6.11210E-02  2.0000       133.46       57.024      -0.12095    
    248     (1,132)               133.34       6.20625E-02  2.0000       133.41       1164.7      -7.06195E-02
    249     (1,130)               133.34       6.29919E-02  2.0000       133.46       57.024      -0.11658    
    250     (1,129)               133.34       6.38732E-02  2.0000       133.41       1164.7      -6.73658E-02
    251     (1,101)               133.34       6.47442E-02  2.0000       133.46       57.024      -0.11279    
    252     (1,98)                133.35       6.55798E-02  2.0000       133.41       1164.7      -6.50160E-02
    253     (1,96)                133.35       6.64069E-02  2.0000       133.46       57.024      -0.11026    
    254     (1,95)                133.35       6.72020E-02  2.0000       133.41       1164.7      -6.28413E-02
    255     (1,69)                133.35       6.79893E-02  2.0000       133.46       57.024      -0.10750    
    256     (1,66)                133.35       6.87424E-02  2.0000       133.41       1178.5      -5.96723E-02
    257     (1,65)                133.35       6.94650E-02  2.0000       133.42       48.384      -7.35159E-02
    258     (1,63)                133.34       7.01505E-02  2.0000       133.40       1061.0      -6.31524E-02
    259     (1,60)                133.34       7.09561E-02  2.0000       133.40       288.58      -5.71997E-02
    260     (1,36)                133.22       7.22839E-02  2.0000       133.35       934.85      -0.13107    
    261     (1,35)                133.22       7.39266E-02  2.0000       133.37       357.70      -0.14492    
    262     (1,33)                133.23       7.53374E-02  2.0000       133.37       708.48      -0.14116    
    263     (1,30)                133.23       7.71041E-02  2.0000       133.37       634.18      -0.14635    
    264     (1,8)                 133.23       7.89418E-02  2.0000       133.42       589.25      -0.18824    
    265     (1,7)                 133.23       8.10946E-02  2.0000       133.44       634.18      -0.20782    
    266     (1,5)                 133.23       8.24493E-02  2.0000       133.57       69.120      -0.33511    
 -------------------------------------------------------------------------------------------------------------



 SFR PACKAGE - SUMMARY OF FLOWS FOR EACH CONTROL VOLUME   PERIOD      2   STEP       48
 ------------------------------------------------------------------------------------------------------------------------------------------------------------------------------
                                                                                                                                                                     PERCENT   
   NUMBER   CELLID                  INFLOW      OUTFLOW        GWF        RAINFALL   EVAPORATION     RUNOFF     EXT INFLOW  EXT OUTFLOW    STORAGE      IN - OUT    DIFFERENCE 
 ------------------------------------------------------------------------------------------------------------------------------------------------------------------------------
     1      (2,2565)              0.0000       0.0000       0.0000       0.0000       0.0000       0.0000       0.0000       0.0000       0.0000       0.0000       0.0000     
     2      (2,2563)              0.0000       0.0000       0.0000       0.0000       0.0000       0.0000       0.0000       0.0000       0.0000       0.0000       0.0000     
     3      (2,2561)              0.0000       0.0000       0.0000       0.0000       0.0000       0.0000       0.0000       0.0000       0.0000       0.0000       0.0000     
     4      (2,2560)              0.0000       0.0000       0.0000       0.0000       0.0000       0.0000       0.0000       0.0000       0.0000       0.0000       0.0000     
     5      (2,2557)              0.0000       0.0000       0.0000       0.0000       0.0000       0.0000       0.0000       0.0000       0.0000       0.0000       0.0000     
     6      (2,2485)              0.0000       0.0000       0.0000       0.0000       0.0000       0.0000       0.0000       0.0000       0.0000       0.0000       0.0000     
     7      (2,2484)              0.0000       0.0000       0.0000       0.0000       0.0000       0.0000       0.0000       0.0000       0.0000       0.0000       0.0000     
     8      (2,2481)              0.0000       0.0000       0.0000       0.0000       0.0000       0.0000       0.0000       0.0000       0.0000       0.0000       0.0000     
     9      (2,2479)              0.0000       0.0000       0.0000       0.0000       0.0000       0.0000       0.0000       0.0000       0.0000       0.0000       0.0000     
     10     (2,2478)              0.0000       0.0000       0.0000       0.0000       0.0000       0.0000       0.0000       0.0000       0.0000       0.0000       0.0000     
     11     (2,2399)              0.0000       0.0000       0.0000       0.0000       0.0000       0.0000       0.0000       0.0000       0.0000       0.0000       0.0000     
     12     (2,2396)              0.0000       0.0000       0.0000       0.0000       0.0000       0.0000       0.0000       0.0000       0.0000       0.0000       0.0000     
     13     (2,2394)              0.0000       0.0000       0.0000       0.0000       0.0000       0.0000       0.0000       0.0000       0.0000       0.0000       0.0000     
     14     (2,2393)              0.0000       0.0000       0.0000       0.0000       0.0000       0.0000       0.0000       0.0000       0.0000       0.0000       0.0000     
     15     (2,2304)              0.0000       0.0000       0.0000       0.0000       0.0000       0.0000       0.0000       0.0000       0.0000       0.0000       0.0000     
     16     (2,2301)              0.0000       0.0000       0.0000       0.0000       0.0000       0.0000       0.0000       0.0000       0.0000       0.0000       0.0000     
     17     (2,2300)              0.0000       0.0000       0.0000       0.0000       0.0000       0.0000       0.0000       0.0000       0.0000       0.0000       0.0000     
     18     (2,2389)              0.0000       0.0000       0.0000       0.0000       0.0000       0.0000       0.0000       0.0000       0.0000       0.0000       0.0000     
     19     (2,2386)              0.0000       0.0000       0.0000       0.0000       0.0000       0.0000       0.0000       0.0000       0.0000       0.0000       0.0000     
     20     (2,2385)              0.0000       0.0000       0.0000       0.0000       0.0000       0.0000       0.0000       0.0000       0.0000       0.0000       0.0000     
     21     (2,2296)              0.0000       0.0000       0.0000       0.0000       0.0000       0.0000       0.0000       0.0000       0.0000       0.0000       0.0000     
     22     (2,2293)              0.0000       0.0000       0.0000       0.0000       0.0000       0.0000       0.0000       0.0000       0.0000       0.0000       0.0000     
     23     (2,2292)              0.0000       0.0000       0.0000       0.0000       0.0000       0.0000       0.0000       0.0000       0.0000       0.0000       0.0000     
     24     (2,2289)              0.0000       0.0000       0.0000       0.0000       0.0000       0.0000       0.0000       0.0000       0.0000       0.0000       0.0000     
     25     (2,2288)              0.0000       0.0000       0.0000       0.0000       0.0000       0.0000       0.0000       0.0000       0.0000       0.0000       0.0000     
     26     (2,2286)              0.0000       0.0000       0.0000       0.0000       0.0000       0.0000       0.0000       0.0000       0.0000       0.0000       0.0000     
     27     (2,2283)              0.0000       0.0000       0.0000       0.0000       0.0000       0.0000       0.0000       0.0000       0.0000       0.0000       0.0000     
     28     (2,2282)              0.0000       0.0000       0.0000       0.0000       0.0000       0.0000       0.0000       0.0000       0.0000       0.0000       0.0000     
     29     (2,2279)              0.0000       0.0000       0.0000       0.0000       0.0000       0.0000       0.0000       0.0000       0.0000       0.0000       0.0000     
     30     (2,2278)              0.0000       0.0000       0.0000       0.0000       0.0000       0.0000       0.0000       0.0000       0.0000       0.0000       0.0000     
     31     (2,2275)              0.0000       0.0000       0.0000       0.0000       0.0000       0.0000       0.0000       0.0000       0.0000       0.0000       0.0000     
     32     (2,2277)              0.0000       0.0000       0.0000       0.0000       0.0000       0.0000       0.0000       0.0000       0.0000       0.0000       0.0000     
     33     (2,2276)              0.0000       0.0000       0.0000       0.0000       0.0000       0.0000       0.0000       0.0000       0.0000       0.0000       0.0000     
     34     (2,2273)              0.0000       0.0000       0.0000       0.0000       0.0000       0.0000       0.0000       0.0000       0.0000       0.0000       0.0000     
     35     (2,2272)              0.0000       0.0000       0.0000       0.0000       0.0000       0.0000       0.0000       0.0000       0.0000       0.0000       0.0000     
     36     (2,2376)              0.0000       0.0000       0.0000       0.0000       0.0000       0.0000       0.0000       0.0000       0.0000       0.0000       0.0000     
     37     (2,2373)              0.0000       0.0000       0.0000       0.0000       0.0000       0.0000       0.0000       0.0000       0.0000       0.0000       0.0000     
     38     (2,2372)              0.0000       0.0000       0.0000       0.0000       0.0000       0.0000       0.0000       0.0000       0.0000       0.0000       0.0000     
     39     (2,2369)              0.0000       0.0000       0.0000       0.0000       0.0000       0.0000       0.0000       0.0000       0.0000       0.0000       0.0000     
     40     (2,2368)              0.0000       0.0000       0.0000       0.0000       0.0000       0.0000       0.0000       0.0000       0.0000       0.0000       0.0000     
     41     (2,2370)              0.0000       0.0000       0.0000       0.0000       0.0000       0.0000       0.0000       0.0000       0.0000       0.0000       0.0000     
     42     (2,2367)              0.0000       0.0000       0.0000       0.0000       0.0000       0.0000       0.0000       0.0000       0.0000       0.0000       0.0000     
     43     (2,2366)              0.0000       0.0000       0.0000       0.0000       0.0000       0.0000       0.0000       0.0000       0.0000       0.0000       0.0000     
     44     (2,2363)              0.0000       0.0000       0.0000       0.0000       0.0000       0.0000       0.0000       0.0000       0.0000       0.0000       0.0000     
     45     (2,2362)              0.0000       0.0000       0.0000       0.0000       0.0000       0.0000       0.0000       0.0000       0.0000       0.0000       0.0000     
     46     (2,2462)              0.0000       0.0000       0.0000       0.0000       0.0000       0.0000       0.0000       0.0000       0.0000       0.0000       0.0000     
     47     (1,2459)              0.0000       0.0000       0.0000       0.0000       0.0000       0.0000       0.0000       0.0000       0.0000       0.0000       0.0000     
     48     (1,2458)              0.0000       0.0000       0.0000       0.0000       0.0000       0.0000       0.0000       0.0000       0.0000       0.0000       0.0000     
     49     (1,2460)              0.0000       0.0000       0.0000       0.0000       0.0000       0.0000       0.0000       0.0000       0.0000       0.0000       0.0000     
     50     (1,2457)              0.0000       0.0000       0.0000       0.0000       0.0000       0.0000       0.0000       0.0000       0.0000       0.0000       0.0000     
     51     (1,2538)              0.0000       0.0000       0.0000       0.0000       0.0000       0.0000       0.0000       0.0000       0.0000       0.0000       0.0000     
     52     (1,2537)              0.0000       0.0000       0.0000       0.0000       0.0000       0.0000       0.0000       0.0000       0.0000       0.0000       0.0000     
     53     (1,2539)              0.0000       0.0000       0.0000       0.0000       0.0000       0.0000       0.0000       0.0000       0.0000       0.0000       0.0000     
     54     (1,2536)              0.0000       0.0000       0.0000       0.0000       0.0000       0.0000       0.0000       0.0000       0.0000       0.0000       0.0000     
     55     (1,2614)              0.0000       0.0000       0.0000       0.0000       0.0000       0.0000       0.0000       0.0000       0.0000       0.0000       0.0000     
     56     (1,2613)              0.0000       0.0000       0.0000       0.0000       0.0000       0.0000       0.0000       0.0000       0.0000       0.0000       0.0000     
     57     (1,2615)              0.0000       0.0000       0.0000       0.0000       0.0000       0.0000       0.0000       0.0000       0.0000       0.0000       0.0000     
     58     (1,2682)              0.0000       0.0000       0.0000       0.0000       0.0000       0.0000       0.0000       0.0000       0.0000       0.0000       0.0000     
     59     (1,2684)              0.0000       0.0000       0.0000       0.0000       0.0000       0.0000       0.0000       0.0000       0.0000       0.0000       0.0000     
     60     (1,2681)              0.0000       0.0000       0.0000       0.0000       0.0000       0.0000       0.0000       0.0000       0.0000       0.0000       0.0000     
     61     (1,2762)              0.0000       0.0000       0.0000       0.0000       0.0000       0.0000       0.0000       0.0000       0.0000       0.0000       0.0000     
     62     (1,2761)              0.0000       0.0000       0.0000       0.0000       0.0000       0.0000       0.0000       0.0000       0.0000       0.0000       0.0000     
     63     (1,2763)              0.0000       0.0000       0.0000       0.0000       0.0000       0.0000       0.0000       0.0000       0.0000       0.0000       0.0000     
     64     (1,2760)              0.0000       0.0000       0.0000       0.0000       0.0000       0.0000       0.0000       0.0000       0.0000       0.0000       0.0000     
     65     (1,2759)              0.0000       0.0000       0.0000       0.0000       0.0000       0.0000       0.0000       0.0000       0.0000       0.0000       0.0000     
     66     (1,2756)              0.0000       0.0000       0.0000       0.0000       0.0000       0.0000       0.0000       0.0000       0.0000       0.0000       0.0000     
     67     (1,2755)              0.0000       0.0000       0.0000       0.0000       0.0000       0.0000       0.0000       0.0000       0.0000       0.0000       0.0000     
     68     (1,2752)              0.0000       0.0000       0.0000       0.0000       0.0000       0.0000       0.0000       0.0000       0.0000       0.0000       0.0000     
     69     (1,2751)              0.0000       0.0000       0.0000       0.0000       0.0000       0.0000       0.0000       0.0000       0.0000       0.0000       0.0000     
     70     (1,2748)              0.0000       0.0000       0.0000       0.0000       0.0000       0.0000       0.0000       0.0000       0.0000       0.0000       0.0000     
     71     (1,2831)              0.0000       0.0000       0.0000       0.0000       0.0000       0.0000       0.0000       0.0000       0.0000       0.0000       0.0000     
     72     (1,2830)              0.0000       0.0000       0.0000       0.0000       0.0000       0.0000       0.0000       0.0000       0.0000       0.0000       0.0000     
     73     (1,2827)              0.0000       0.0000       0.0000       0.0000       0.0000       0.0000       0.0000       0.0000       0.0000       0.0000       0.0000     
     74     (1,2829)              0.0000       0.0000       0.0000       0.0000       0.0000       0.0000       0.0000       0.0000       0.0000       0.0000       0.0000     
     75     (1,2828)              0.0000       0.0000       0.0000       0.0000       0.0000       0.0000       0.0000       0.0000       0.0000       0.0000       0.0000     
     76     (1,2825)              0.0000       0.0000       0.0000       0.0000       0.0000       0.0000       0.0000       0.0000       0.0000       0.0000       0.0000     
     77     (1,2824)              0.0000       0.0000       0.0000       0.0000       0.0000       0.0000       0.0000       0.0000       0.0000       0.0000       0.0000     
     78     (1,2895)              0.0000       0.0000       0.0000       0.0000       0.0000       0.0000       0.0000       0.0000       0.0000       0.0000       0.0000     
     79     (1,2892)              0.0000       0.0000       0.0000       0.0000       0.0000       0.0000       0.0000       0.0000       0.0000       0.0000       0.0000     
     80     (1,2891)              0.0000       0.0000       0.0000       0.0000       0.0000       0.0000       0.0000       0.0000       0.0000       0.0000       0.0000     
     81     (1,2888)              0.0000       0.0000       0.0000       0.0000       0.0000       0.0000       0.0000       0.0000       0.0000       0.0000       0.0000     
     82     (2,2887)              0.0000       0.0000       0.0000       0.0000       0.0000       0.0000       0.0000       0.0000       0.0000       0.0000       0.0000     
     83     (1,2884)              0.0000       0.0000       0.0000       0.0000       0.0000       0.0000       0.0000       0.0000       0.0000       0.0000       0.0000     
     84     (1,2819)              0.0000       0.0000       0.0000       0.0000       0.0000       0.0000       0.0000       0.0000       0.0000       0.0000       0.0000     
     85     (1,2818)              0.0000       0.0000       0.0000       0.0000       0.0000       0.0000       0.0000       0.0000       0.0000       0.0000       0.0000     
     86     (1,2816)              0.0000       0.0000       0.0000       0.0000       0.0000       0.0000       0.0000       0.0000       0.0000       0.0000       0.0000     
     87     (1,2813)              0.0000       0.0000       0.0000       0.0000       0.0000       0.0000       0.0000       0.0000       0.0000       0.0000       0.0000     
     88     (1,2739)              0.0000       0.0000       0.0000       0.0000       0.0000       0.0000       0.0000       0.0000       0.0000       0.0000       0.0000     
     89     (1,2738)              0.0000       0.0000       0.0000       0.0000       0.0000       0.0000       0.0000       0.0000       0.0000       0.0000       0.0000     
     90     (1,2736)              0.0000       0.0000       0.0000       0.0000       0.0000       0.0000       0.0000       0.0000       0.0000       0.0000       0.0000     
     91     (1,2733)              0.0000       0.0000       0.0000       0.0000       0.0000       0.0000       0.0000       0.0000       0.0000       0.0000       0.0000     
     92     (1,2667)              0.0000       0.0000       0.0000       0.0000       0.0000       0.0000       0.0000       0.0000       0.0000       0.0000       0.0000     
     93     (1,2666)              0.0000       0.0000       0.0000       0.0000       0.0000       0.0000       0.0000       0.0000       0.0000       0.0000       0.0000     
     94     (1,2664)              0.0000       0.0000       0.0000       0.0000       0.0000       0.0000       0.0000       0.0000       0.0000       0.0000       0.0000     
     95     (1,2600)              0.0000       0.0000       0.0000       0.0000       0.0000       0.0000       0.0000       0.0000       0.0000       0.0000       0.0000     
     96     (1,2597)              0.0000       0.0000       0.0000       0.0000       0.0000       0.0000       0.0000       0.0000       0.0000       0.0000       0.0000     
     97     (1,2595)              0.0000       0.0000       0.0000       0.0000       0.0000       0.0000       0.0000       0.0000       0.0000       0.0000       0.0000     
     98     (1,2520)              0.0000       0.0000       0.0000       0.0000       0.0000       0.0000       0.0000       0.0000       0.0000       0.0000       0.0000     
     99     (1,2519)              0.0000       0.0000       0.0000       0.0000       0.0000       0.0000       0.0000       0.0000       0.0000       0.0000       0.0000     
    100     (1,2517)              0.0000       0.0000       0.0000       0.0000       0.0000       0.0000       0.0000       0.0000       0.0000       0.0000       0.0000     
    101     (1,2436)              0.0000       0.0000       0.0000       0.0000       0.0000       0.0000       0.0000       0.0000       0.0000       0.0000       0.0000     
    102     (1,2434)              0.0000       0.0000       0.0000       0.0000       0.0000       0.0000       0.0000       0.0000       0.0000       0.0000       0.0000     
    103     (1,2435)              0.0000       0.0000       0.0000       0.0000       0.0000       0.0000       0.0000       0.0000       0.0000       0.0000       0.0000     
    104     (1,2438)              0.0000       0.0000       0.0000       0.0000       0.0000       0.0000       0.0000       0.0000       0.0000       0.0000       0.0000     
    105     (1,2344)              0.0000       0.0000       0.0000       0.0000       0.0000       0.0000       0.0000       0.0000       0.0000       0.0000       0.0000     
    106     (1,2342)              0.0000       0.0000       0.0000       0.0000       0.0000       0.0000       0.0000       0.0000       0.0000       0.0000       0.0000     
    107     (1,2343)              0.0000       0.0000       0.0000       0.0000       0.0000       0.0000       0.0000       0.0000       0.0000       0.0000       0.0000     
    108     (1,2251)              0.0000       0.0000       0.0000       0.0000       0.0000       0.0000       0.0000       0.0000       0.0000       0.0000       0.0000     
    109     (1,2249)              0.0000       0.0000       0.0000       0.0000       0.0000       0.0000       0.0000       0.0000       0.0000       0.0000       0.0000     
    110     (1,2183)              0.0000       0.0000       0.0000       0.0000       0.0000       0.0000       0.0000       0.0000       0.0000       0.0000       0.0000     
    111     (1,2181)              0.0000       0.0000       0.0000       0.0000       0.0000       0.0000       0.0000       0.0000       0.0000       0.0000       0.0000     
    112     (1,2114)              0.0000       0.0000       0.0000       0.0000       0.0000       0.0000       0.0000       0.0000       0.0000       0.0000       0.0000     
    113     (1,2112)              0.0000       0.0000       0.0000       0.0000       0.0000       0.0000       0.0000       0.0000       0.0000       0.0000       0.0000     
    114     (1,2044)              0.0000       0.0000       0.0000       0.0000       0.0000       0.0000       0.0000       0.0000       0.0000       0.0000       0.0000     
    115     (1,2043)              0.0000       0.0000       0.0000       0.0000       0.0000       0.0000       0.0000       0.0000       0.0000       0.0000       0.0000     
    116     (1,2041)              0.0000       0.0000       0.0000       0.0000       0.0000       0.0000       0.0000       0.0000       0.0000       0.0000       0.0000     
    117     (1,1972)              0.0000       0.0000       0.0000       0.0000       0.0000       0.0000       0.0000       0.0000       0.0000       0.0000       0.0000     
    118     (1,1969)              0.0000       0.0000       0.0000       0.0000       0.0000       0.0000       0.0000       0.0000       0.0000       0.0000       0.0000     
    119     (1,1967)              0.0000       0.0000       0.0000       0.0000       0.0000       0.0000       0.0000       0.0000       0.0000       0.0000       0.0000     
    120     (1,1966)              0.0000       0.0000       0.0000       0.0000       0.0000       0.0000       0.0000       0.0000       0.0000       0.0000       0.0000     
    121     (1,1893)              0.0000       0.0000       0.0000       0.0000       0.0000       0.0000       0.0000       0.0000       0.0000       0.0000       0.0000     
    122     (1,1894)              0.0000       0.0000       0.0000       0.0000       0.0000       0.0000       0.0000       0.0000       0.0000       0.0000       0.0000     
    123     (1,1892)              0.0000       0.0000       0.0000       0.0000       0.0000       0.0000       0.0000       0.0000       0.0000       0.0000       0.0000     
    124     (1,1895)              0.0000       0.0000       0.0000       0.0000       0.0000       0.0000       0.0000       0.0000       0.0000       0.0000       0.0000     
    125     (1,1896)              0.0000       0.0000       0.0000       0.0000       0.0000       0.0000       0.0000       0.0000       0.0000       0.0000       0.0000     
    126     (1,1819)              0.0000       0.0000       0.0000       0.0000       0.0000       0.0000       0.0000       0.0000       0.0000       0.0000       0.0000     
    127     (1,1822)              0.0000       0.0000       0.0000       0.0000       0.0000       0.0000       0.0000       0.0000       0.0000       0.0000       0.0000     
    128     (1,1820)              0.0000       0.0000       0.0000       0.0000       0.0000       0.0000       0.0000       0.0000       0.0000       0.0000       0.0000     
    129     (1,1745)              0.0000       0.0000       0.0000       0.0000       0.0000       0.0000       0.0000       0.0000       0.0000       0.0000       0.0000     
    130     (1,1742)              0.0000       0.0000       0.0000       0.0000       0.0000       0.0000       0.0000       0.0000       0.0000       0.0000       0.0000     
    131     (1,1741)              0.0000       0.0000       0.0000       0.0000       0.0000       0.0000       0.0000       0.0000       0.0000       0.0000       0.0000     
    132     (1,1738)              0.0000       0.0000       0.0000       0.0000       0.0000       0.0000       0.0000       0.0000       0.0000       0.0000       0.0000     
    133     (1,1737)              0.0000       0.0000       0.0000       0.0000       0.0000       0.0000       0.0000       0.0000       0.0000       0.0000       0.0000     
    134     (1,1735)              0.0000       0.0000       0.0000       0.0000       0.0000       0.0000       0.0000       0.0000       0.0000       0.0000       0.0000     
    135     (1,1732)              0.0000       0.0000       0.0000       0.0000       0.0000       0.0000       0.0000       0.0000       0.0000       0.0000       0.0000     
    136     (1,1653)              0.0000       0.0000       0.0000       0.0000       0.0000       0.0000       0.0000       0.0000       0.0000       0.0000       0.0000     
    137     (1,1651)              0.0000       0.0000       0.0000       0.0000       0.0000       0.0000       0.0000       0.0000       0.0000       0.0000       0.0000     
    138     (1,1654)              0.0000       0.0000       0.0000       0.0000       0.0000       0.0000       0.0000       0.0000       0.0000       0.0000       0.0000     
    139     (1,1655)              0.0000       0.0000       0.0000       0.0000       0.0000       0.0000       0.0000       0.0000       0.0000       0.0000       0.0000     
    140     (1,1658)              0.0000       0.0000       0.0000       0.0000       0.0000       0.0000       0.0000       0.0000       0.0000       0.0000       0.0000     
    141     (1,1548)              0.0000       0.0000       0.0000       0.0000       0.0000       0.0000       0.0000       0.0000       0.0000       0.0000       0.0000     
    142     (1,1546)              0.0000       0.0000       0.0000       0.0000       0.0000       0.0000       0.0000       0.0000       0.0000       0.0000       0.0000     
    143     (1,1543)              0.0000       0.0000       0.0000       0.0000       0.0000       0.0000       0.0000       0.0000       0.0000       0.0000       0.0000     
    144     (1,1453)              0.0000       0.0000       0.0000       0.0000       0.0000       0.0000       0.0000       0.0000       0.0000       0.0000       0.0000     
    145     (1,1452)              0.0000       0.0000       0.0000       0.0000       0.0000       0.0000       0.0000       0.0000       0.0000       0.0000       0.0000     
    146     (1,1449)              0.0000       0.0000       0.0000       0.0000       0.0000       0.0000       0.0000       0.0000       0.0000       0.0000       0.0000     
    147     (1,1448)              0.0000       0.0000       0.0000       0.0000       0.0000       0.0000       0.0000       0.0000       0.0000       0.0000       0.0000     
    148     (1,1538)              0.0000       0.0000       0.0000       0.0000       0.0000       0.0000       0.0000       0.0000       0.0000       0.0000       0.0000     
    149     (1,1535)              0.0000       0.0000       0.0000       0.0000       0.0000       0.0000       0.0000       0.0000       0.0000       0.0000       0.0000     
    150     (1,1537)              0.0000       0.0000       0.0000       0.0000       0.0000       0.0000       0.0000       0.0000       0.0000       0.0000       0.0000     
    151     (1,1647)              0.0000       0.0000       0.0000       0.0000       0.0000       0.0000       0.0000       0.0000       0.0000       0.0000       0.0000     
    152     (1,1649)              0.0000       0.0000       0.0000       0.0000       0.0000       0.0000       0.0000       0.0000       0.0000       0.0000       0.0000     
    153     (1,1648)              0.0000       0.0000       0.0000       0.0000       0.0000       0.0000       0.0000       0.0000       0.0000       0.0000       0.0000     
    154     (1,1645)              0.0000       0.0000       0.0000       0.0000       0.0000       0.0000       0.0000       0.0000       0.0000       0.0000       0.0000     
    155     (1,1644)              0.0000       0.0000       0.0000       0.0000       0.0000       0.0000       0.0000       0.0000       0.0000       0.0000       0.0000     
    156     (1,1642)              0.0000       0.0000       0.0000       0.0000       0.0000       0.0000       0.0000       0.0000       0.0000       0.0000       0.0000     
    157     (1,1639)              0.0000       0.0000       0.0000       0.0000       0.0000       0.0000       0.0000       0.0000       0.0000       0.0000       0.0000     
    158     (1,1638)              0.0000       0.0000       0.0000       0.0000       0.0000       0.0000       0.0000       0.0000       0.0000       0.0000       0.0000     
    159     (1,1640)              0.0000       0.0000       0.0000       0.0000       0.0000       0.0000       0.0000       0.0000       0.0000       0.0000       0.0000     
    160     (1,1637)              0.0000       0.0000       0.0000       0.0000       0.0000       0.0000       0.0000       0.0000       0.0000       0.0000       0.0000     
    161     (1,1636)              0.0000       0.0000       0.0000       0.0000       0.0000       0.0000       0.0000       0.0000       0.0000       0.0000       0.0000     
    162     (1,1633)              0.0000       0.0000       0.0000       0.0000       0.0000       0.0000       0.0000       0.0000       0.0000       0.0000       0.0000     
    163     (1,1632)              0.0000       0.0000       0.0000       0.0000       0.0000       0.0000       0.0000       0.0000       0.0000       0.0000       0.0000     
    164     (1,1629)              0.0000       0.0000       0.0000       0.0000       0.0000       0.0000       0.0000       0.0000       0.0000       0.0000       0.0000     
    165     (1,1628)              0.0000       0.0000       0.0000       0.0000       0.0000       0.0000       0.0000       0.0000       0.0000       0.0000       0.0000     
    166     (1,1625)              0.0000       0.0000       0.0000       0.0000       0.0000       0.0000       0.0000       0.0000       0.0000       0.0000       0.0000     
    167     (1,1624)              0.0000       0.0000       0.0000       0.0000       0.0000       0.0000       0.0000       0.0000       0.0000       0.0000       0.0000     
    168     (1,1621)              0.0000       0.0000       0.0000       0.0000       0.0000       0.0000       0.0000       0.0000       0.0000       0.0000       0.0000     
    169     (1,1620)              0.0000       0.0000       0.0000       0.0000       0.0000       0.0000       0.0000       0.0000       0.0000       0.0000       0.0000     
    170     (1,1617)              0.0000       0.0000       0.0000       0.0000       0.0000       0.0000       0.0000       0.0000       0.0000       0.0000       0.0000     
    171     (1,1615)              0.0000       0.0000       0.0000       0.0000       0.0000       0.0000       0.0000       0.0000       0.0000       0.0000       0.0000     
    172     (1,1614)              0.0000       0.0000       0.0000       0.0000       0.0000       0.0000       0.0000       0.0000       0.0000       0.0000       0.0000     
    173     (1,1611)              0.0000       0.0000       0.0000       0.0000       0.0000       0.0000       0.0000       0.0000       0.0000       0.0000       0.0000     
    174     (1,1525)              0.0000       0.0000       0.0000       0.0000       0.0000       0.0000       0.0000       0.0000       0.0000       0.0000       0.0000     
    175     (1,1524)              0.0000       0.0000       0.0000       0.0000       0.0000       0.0000       0.0000       0.0000       0.0000       0.0000       0.0000     
    176     (1,1521)              0.0000       0.0000       0.0000       0.0000       0.0000       0.0000       0.0000       0.0000       0.0000       0.0000       0.0000     
    177     (1,1519)              0.0000       0.0000       0.0000       0.0000       0.0000       0.0000       0.0000       0.0000       0.0000       0.0000       0.0000     
    178     (1,1518)              0.0000       0.0000       0.0000       0.0000       0.0000       0.0000       0.0000       0.0000       0.0000       0.0000       0.0000     
    179     (1,1515)              0.0000       0.0000       0.0000       0.0000       0.0000       0.0000       0.0000       0.0000       0.0000       0.0000       0.0000     
    180     (1,1431)              0.0000       0.0000       0.0000       0.0000       0.0000       0.0000       0.0000       0.0000       0.0000       0.0000       0.0000     
    181     (1,1429)              0.0000       0.0000       0.0000       0.0000       0.0000       0.0000       0.0000       0.0000       0.0000       0.0000       0.0000     
    182     (1,1432)              0.0000       0.0000       0.0000       0.0000       0.0000       0.0000       0.0000       0.0000       0.0000       0.0000       0.0000     
    183     (1,1353)              0.0000       0.0000       0.0000       0.0000       0.0000       0.0000       0.0000       0.0000       0.0000       0.0000       0.0000     
    184     (1,1351)              0.0000       0.0000       0.0000       0.0000       0.0000       0.0000       0.0000       0.0000       0.0000       0.0000       0.0000     
    185     (1,1274)              0.0000       0.0000       0.0000       0.0000       0.0000       0.0000       0.0000       0.0000       0.0000       0.0000       0.0000     
    186     (1,1272)              0.0000       0.0000       0.0000       0.0000       0.0000       0.0000       0.0000       0.0000       0.0000       0.0000       0.0000     
    187     (1,1194)              0.0000       0.0000       0.0000       0.0000       0.0000       0.0000       0.0000       0.0000       0.0000       0.0000       0.0000     
    188     (1,1192)              0.0000      -38.701       38.701       0.0000       0.0000       0.0000       0.0000       0.0000       0.0000       0.0000       0.0000     
    189     (1,1189)              38.701      -39.527       0.82612      0.0000       0.0000       0.0000       0.0000       0.0000       0.0000       0.0000       0.0000     
    190     (1,1111)              39.527      -101.23       61.703       0.0000       0.0000       0.0000       0.0000       0.0000       0.0000       0.0000       0.0000     
    191     (1,1109)              101.23      -142.14       40.912       0.0000       0.0000       0.0000       0.0000       0.0000       0.0000       0.0000       0.0000     
    192     (1,1108)              142.14      -156.77       14.631       0.0000       0.0000       0.0000       0.0000       0.0000       0.0000       0.0000       0.0000     
    193     (1,1030)              156.77      -188.94       32.171       0.0000       0.0000       0.0000       0.0000       0.0000       0.0000       0.0000       0.0000     
    194     (1,1028)              188.94      -222.19       33.243       0.0000       0.0000       0.0000       0.0000       0.0000       0.0000       0.0000       0.0000     
    195     (1,950)               222.19      -231.88       9.6948       0.0000       0.0000       0.0000       0.0000       0.0000       0.0000       0.0000       0.0000     
    196     (1,947)               231.88      -293.01       61.132       0.0000       0.0000       0.0000       0.0000       0.0000       0.0000       0.0000       0.0000     
    197     (1,945)               293.01      -341.93       48.920       0.0000       0.0000       0.0000       0.0000       0.0000       0.0000       0.0000       0.0000     
    198     (1,944)               341.93      -386.60       44.668       0.0000       0.0000       0.0000       0.0000       0.0000       0.0000       0.0000       0.0000     
    199     (1,866)               386.60      -413.66       27.057       0.0000       0.0000       0.0000       0.0000       0.0000       0.0000       0.0000       0.0000     
    200     (1,863)               413.66      -446.83       33.174       0.0000       0.0000       0.0000       0.0000       0.0000       0.0000       0.0000       0.0000     
    201     (1,861)               446.83      -481.64       34.805       0.0000       0.0000       0.0000       0.0000       0.0000       0.0000       0.0000       0.0000     
    202     (1,860)               481.64      -498.97       17.334       0.0000       0.0000       0.0000       0.0000       0.0000       0.0000       0.0000       0.0000     
    203     (1,782)               498.97      -533.51       34.538       0.0000       0.0000       0.0000       0.0000       0.0000       0.0000       0.0000       0.0000     
    204     (1,779)               533.51      -541.37       7.8618       0.0000       0.0000       0.0000       0.0000       0.0000       0.0000       0.0000       0.0000     
    205     (1,777)               541.37      -579.73       38.355       0.0000       0.0000       0.0000       0.0000       0.0000       0.0000       0.0000       0.0000     
    206     (1,700)               579.73      -580.49       0.76218      0.0000       0.0000       0.0000       0.0000       0.0000       0.0000       0.0000       0.0000     
    207     (1,699)               580.49      -604.46       23.967       0.0000       0.0000       0.0000       0.0000       0.0000       0.0000       0.0000       0.0000     
    208     (1,697)               604.46      -611.18       6.7275       0.0000       0.0000       0.0000       0.0000       0.0000       0.0000       0.0000       0.0000     
    209     (1,694)               611.18      -612.72       1.5331       0.0000       0.0000       0.0000       0.0000       0.0000       0.0000       0.0000       0.0000     
    210     (1,618)               612.72      -643.18       30.459       0.0000       0.0000       0.0000       0.0000       0.0000       0.0000       0.0000       0.0000     
    211     (1,617)               643.18      -660.59       17.410       0.0000       0.0000       0.0000       0.0000       0.0000       0.0000       0.0000       0.0000     
    212     (1,615)               660.59      -686.89       26.303       0.0000       0.0000       0.0000       0.0000       0.0000       0.0000       0.0000       0.0000     
    213     (1,612)               686.89      -687.77       0.87831      0.0000       0.0000       0.0000       0.0000       0.0000       0.0000       0.0000       0.0000     
    214     (1,537)               687.77      -680.53      -7.2409       0.0000       0.0000       0.0000       0.0000       0.0000       0.0000       0.0000       0.0000     
    215     (1,535)               680.53      -754.63       74.108       0.0000       0.0000       0.0000       0.0000       0.0000       0.0000       0.0000       0.0000     
    216     (1,534)               754.63      -834.39       79.751       0.0000       0.0000       0.0000       0.0000       0.0000       0.0000       0.0000       0.0000     
    217     (1,531)               834.39      -835.65       1.2614       0.0000       0.0000       0.0000       0.0000       0.0000       0.0000       0.0000       0.0000     
    218     (1,457)               835.65      -896.12       60.470       0.0000       0.0000       0.0000       0.0000       0.0000       0.0000       0.0000       0.0000     
    219     (1,455)               896.12      -955.80       59.684       0.0000       0.0000       0.0000       0.0000       0.0000       0.0000       0.0000       0.0000     
    220     (1,382)               955.80      -990.36       34.555       0.0000       0.0000       0.0000       0.0000       0.0000       0.0000       0.0000       0.0000     
    221     (1,381)               990.36      -1038.9       48.580       0.0000       0.0000       0.0000       0.0000       0.0000       0.0000       0.0000       0.0000     
    222     (1,378)               1038.9      -1071.6       32.678       0.0000       0.0000       0.0000       0.0000       0.0000       0.0000       0.0000       0.0000     
    223     (1,377)               1071.6      -1097.8       26.175       0.0000       0.0000       0.0000       0.0000       0.0000       0.0000       0.0000       0.0000     
    224     (1,375)               1097.8      -1105.8       7.9815       0.0000       0.0000       0.0000       0.0000       0.0000       0.0000       0.0000       0.0000     
    225     (1,372)               1105.8      -1132.1       26.286       0.0000       0.0000       0.0000       0.0000       0.0000       0.0000       0.0000       0.0000     
    226     (1,371)               1132.1      -1137.4       5.3114       0.0000       0.0000       0.0000       0.0000       0.0000       0.0000       0.0000       0.0000     
    227     (1,299)               1137.4      -1153.9       16.498       0.0000       0.0000       0.0000       0.0000       0.0000       0.0000       0.0000       0.0000     
    228     (1,296)               1153.9      -1161.2       7.3070       0.0000       0.0000       0.0000       0.0000       0.0000       0.0000       0.0000       0.0000     
    229     (1,294)               1161.2      -1163.6       2.3809       0.0000       0.0000       0.0000       0.0000       0.0000       0.0000       0.0000       0.0000     
    230     (1,293)               1163.6      -1168.0       4.4685       0.0000       0.0000       0.0000       0.0000       0.0000       0.0000       0.0000       0.0000     
    231     (1,290)               1168.0      -1158.3      -9.7093       0.0000       0.0000       0.0000       0.0000       0.0000       0.0000       0.0000       0.0000     
    232     (1,289)               1158.3      -1136.9      -21.399       0.0000       0.0000       0.0000       0.0000       0.0000       0.0000       0.0000       0.0000     
    233     (1,286)               1136.9      -1130.5      -6.4638       0.0000       0.0000       0.0000       0.0000       0.0000       0.0000       0.0000       0.0000     
    234     (1,250)               1130.5      -1091.9      -38.522       0.0000       0.0000       0.0000       0.0000       0.0000       0.0000       0.0000       0.0000     
    235     (1,249)               1091.9      -1010.5      -81.462       0.0000       0.0000       0.0000       0.0000       0.0000       0.0000       0.0000       0.0000     
    236     (1,246)               1010.5      -1023.5       12.996       0.0000       0.0000       0.0000       0.0000       0.0000       0.0000       0.0000       0.0000     
    237     (1,244)               1023.5      -1060.7       37.255       0.0000       0.0000       0.0000       0.0000       0.0000       0.0000       0.0000       0.0000     
    238     (1,243)               1060.7      -1199.3       138.55       0.0000       0.0000       0.0000       0.0000       0.0000       0.0000       0.0000       0.0000     
    239     (1,209)               1199.3      -1267.9       68.667       0.0000       0.0000       0.0000       0.0000       0.0000       0.0000       0.0000       0.0000     
    240     (1,206)               1267.9      -1364.7       96.772       0.0000       0.0000       0.0000       0.0000       0.0000       0.0000       0.0000       0.0000     
    241     (1,204)               1364.7      -1418.6       53.869       0.0000       0.0000       0.0000       0.0000       0.0000       0.0000       0.0000       0.0000     
    242     (1,203)               1418.6      -1498.7       80.141       0.0000       0.0000       0.0000       0.0000       0.0000       0.0000       0.0000       0.0000     
    243     (1,171)               1498.7      -1545.1       46.342       0.0000       0.0000       0.0000       0.0000       0.0000       0.0000       0.0000       0.0000     
    244     (1,168)               1545.1      -1628.9       83.797       0.0000       0.0000       0.0000       0.0000       0.0000       0.0000       0.0000       0.0000     
    245     (1,166)               1628.9      -1636.1       7.2053       0.0000       0.0000       0.0000       0.0000       0.0000       0.0000       0.0000       0.0000     
    246     (1,165)               1636.1      -1724.0       87.947       0.0000       0.0000       0.0000       0.0000       0.0000       0.0000       0.0000       0.0000     
    247     (1,135)               1724.0      -1730.9       6.8970       0.0000       0.0000       0.0000       0.0000       0.0000       0.0000       0.0000       0.0000     
    248     (1,132)               1730.9      -1813.2       82.249       0.0000       0.0000       0.0000       0.0000       0.0000       0.0000       0.0000       0.0000     
    249     (1,130)               1813.2      -1819.8       6.6476       0.0000       0.0000       0.0000       0.0000       0.0000       0.0000       0.0000       0.0000     
    250     (1,129)               1819.8      -1898.3       78.459       0.0000       0.0000       0.0000       0.0000       0.0000       0.0000       0.0000       0.0000     
    251     (1,101)               1898.3      -1904.7       6.4318       0.0000       0.0000       0.0000       0.0000       0.0000       0.0000       0.0000       0.0000     
    252     (1,98)                1904.7      -1980.4       75.722       0.0000       0.0000       0.0000       0.0000       0.0000       0.0000       0.0000       0.0000     
    253     (1,96)                1980.4      -1986.7       6.2877       0.0000       0.0000       0.0000       0.0000       0.0000       0.0000       0.0000       0.0000     
    254     (1,95)                1986.7      -2059.9       73.190       0.0000       0.0000       0.0000       0.0000       0.0000       0.0000       0.0000       0.0000     
    255     (1,69)                2059.9      -2066.0       6.1303       0.0000       0.0000       0.0000       0.0000       0.0000       0.0000       0.0000       0.0000     
    256     (1,66)                2066.0      -2136.3       70.324       0.0000       0.0000       0.0000       0.0000       0.0000       0.0000       0.0000       0.0000     
    257     (1,65)                2136.3      -2139.9       3.5570       0.0000       0.0000       0.0000       0.0000       0.0000       0.0000       0.0000       0.0000     
    258     (1,63)                2139.9      -2206.9       67.004       0.0000       0.0000       0.0000       0.0000       0.0000       0.0000       0.0000       0.0000     
    259     (1,60)                2206.9      -2223.4       16.506       0.0000       0.0000       0.0000       0.0000       0.0000       0.0000       0.0000       0.0000     
    260     (1,36)                2223.4      -2345.9       122.53       0.0000       0.0000       0.0000       0.0000       0.0000       0.0000       0.0000       0.0000     
    261     (1,35)                2345.9      -2397.8       51.838       0.0000       0.0000       0.0000       0.0000       0.0000       0.0000       0.0000       0.0000     
    262     (1,33)                2397.8      -2497.8       100.01       0.0000       0.0000       0.0000       0.0000       0.0000       0.0000       0.0000       0.0000     
    263     (1,30)                2497.8      -2590.6       92.814       0.0000       0.0000       0.0000       0.0000       0.0000       0.0000       0.0000       0.0000     
    264     (1,8)                 2590.6      -2701.5       110.92       0.0000       0.0000       0.0000       0.0000       0.0000       0.0000       0.0000       0.0000     
    265     (1,7)                 2701.5      -2833.3       131.80       0.0000       0.0000       0.0000       0.0000       0.0000       0.0000       0.0000       0.0000     
    266     (1,5)                 2833.3       0.0000       23.163       0.0000       0.0000       0.0000       0.0000      -2856.5       0.0000       0.0000       0.0000     
 ------------------------------------------------------------------------------------------------------------------------------------------------------------------------------




  SFR BUDGET FOR ENTIRE MODEL AT END OF TIME STEP   48, STRESS PERIOD   2
  ------------------------------------------------------------------------------

     CUMULATIVE SFR      L**3       RATES FOR THIS TIME STEP      L**3/T
     ------------------                 ------------------------

           IN:                                      IN:
           ---                                      ---
                 GWF =     4414099.4308                   GWF =        3021.2835
            RAINFALL =           0.0000              RAINFALL =           0.0000
         EVAPORATION =           0.0000           EVAPORATION =           0.0000
              RUNOFF =           0.0000                RUNOFF =           0.0000
          EXT-INFLOW =           0.0000            EXT-INFLOW =           0.0000
         EXT-OUTFLOW =           0.0000           EXT-OUTFLOW =           0.0000
             STORAGE =           0.0000               STORAGE =           0.0000

            TOTAL IN =     4414099.4308              TOTAL IN =        3021.2835

          OUT:                                     OUT:
          ----                                     ----
                 GWF =      240768.8934                   GWF =         164.7975
            RAINFALL =           0.0000              RAINFALL =           0.0000
         EVAPORATION =           0.0000           EVAPORATION =           0.0000
              RUNOFF =           0.0000                RUNOFF =           0.0000
          EXT-INFLOW =           0.0000            EXT-INFLOW =           0.0000
         EXT-OUTFLOW =     4173330.5375           EXT-OUTFLOW =        2856.4860
             STORAGE =           0.0000               STORAGE =           0.0000

           TOTAL OUT =     4414099.4308             TOTAL OUT =        3021.2835

            IN - OUT =           0.0000              IN - OUT =       4.5475E-13

 PERCENT DISCREPANCY =           0.00     PERCENT DISCREPANCY =           0.00



  VOLUME BUDGET FOR ENTIRE MODEL AT END OF TIME STEP   48, STRESS PERIOD   2
  ---------------------------------------------------------------------------------------------------

     CUMULATIVE VOLUME      L**3       RATES FOR THIS TIME STEP      L**3/T          PACKAGE NAME    
     ------------------                 ------------------------                     ----------------

           IN:                                      IN:
           ---                                      ---
              STO-SS =       3.6443E-03                STO-SS =       7.2343E-09     STORAGE         
              STO-SY =           5.1569                STO-SY =       1.0269E-05     STORAGE         
                 GHB =     5594738.9460                   GHB =        3829.3921     GHB             
                 RCH =      136573.8579                   RCH =          93.4797     RCH             
                 SFR =      240768.9018                   SFR =         164.7975     SFR             

            TOTAL IN =     5972086.8662              TOTAL IN =        4087.6693

          OUT:                                     OUT:
          ----                                     ----
              STO-SS =       8.2273E-08                STO-SS =       6.6526E-13     STORAGE         
              STO-SY =       1.1395E-04                STO-SY =       8.2782E-10     STORAGE         
                 GHB =     1557992.2556                   GHB =        1066.3863     GHB             
                 RCH =           0.0000                   RCH =           0.0000     RCH             
                 SFR =     4414099.2334                   SFR =        3021.2835     SFR             

           TOTAL OUT =     5972091.4892             TOTAL OUT =        4087.6697

            IN - OUT =           4.6229              IN - OUT =       3.9929E-04

 PERCENT DISCREPANCY =          -0.00     PERCENT DISCREPANCY =          -0.00




         TIME SUMMARY AT END OF TIME STEP   48 IN STRESS PERIOD    2
                    SECONDS     MINUTES      HOURS       DAYS        YEARS
                    -----------------------------------------------------------
   TIME STEP LENGTH 2.62800E+06  43800.      730.00      30.417     8.32763E-02
 STRESS PERIOD TIME 1.26144E+08 2.10240E+06  35040.      1460.0      3.9973    
         TOTAL TIME 1.26230E+08 2.10384E+06  35064.      1461.0      4.0000    


end timestep

